.model D1N4148 D(IS=0.1P RS=16 CJO=2P TT=12N BV=100 IBV=3.867E-10)
