.model 1N750   D(Is=880.5E-18 Rs=.25 Ikf=0 N=1 Xti=3 Eg=1.11 Cjo=175p M=.5516
+              Vj=.75 Fc=.5 Isr=1.859n Nr=2 Bv=4.7 Ibv=20.245m Nbv=1.6989
+              Ibvl=1.9556m Nbvl=14.976 Tbv1=-21.277u)
