.model 2N2219 NPN(IS=3.0611E-14 ISE=7.5E-15 ISC=1.06525E-11 XTI=3
+ BF=255.9 BR=6.092 IKF=0.2847 IKR=0.125 XTB=1.5
+ VAF=74.03 VAR=28 VJE=0.65 VJC=0.4089
+ RE=0.02 RC=0.12 RB=10
+ CJE=22.01E-12 CJC=7.306E-12 XCJC=0.75 FC=0.5
+ NF=1.00124 NR=1.005 NE=1.41 NC=1.3728 MJE=0.377 MJC=0.3416
+ TF=411.1E-12 TR=46.91E-9 ITF=0.6 VTF=1.7 XTF=3
+ EG=1.11 KF=1E-9 AF=1
+ VCEO=40 ICRATING=500M MFG=NSC-PHILIPS)

