.model 2N2222 NPN(IS=29.13E-15 ISE=9.652E-15 ISC=320.3E-12 XTI=3.000
+ BF=256.7 BR=6.590 IKF=489.9E-3 IKR=192.9E-3 XTB=1.5
+ VAF=80.99 VAR=101.2 VJE=689.1E-3 VJC=662.2E-3
+ RE=193.4E-3 RC=224.8E-3 RB=1.000 RBM=1.000 IRB=1.000E-3
+ CJE=25.89E-12 CJC=10.11E-12 XCJC=0.5946 FC=938.8E-3
+ NF=992.6E-3 NR=984.4E-3 NE=1.516 NC=1.608 MJE=366.8E-3 MJC=416.0E-3
+ TF=293.9E-12 TR=320.0E-9 PTF=0.000 ITF=4.797 VTF=20.00 XTF=71.78
+ EG=1.110 KF=1E-9 AF=1
+ VCEO=30 ICRATING=500M MFG=PHILIPS)

