.model 2N3640 PNP(IS=545.6E-18 ISE=0 ISC=0 XTI=3
+ BF=59.22 BR=1.438 IKF=50E-3 IKR=0 XTB=1.5
+ VAF=100 VAR=30 VJE=0.65 VJC=0.65
+ RE=0.15 RC=3.75 RB=10
+ CJE=2.65E-12 CJC=2.77E-12 XCJC=0.75 FC=0.5
+ NF=1 NR=1 NE=1.5 NC=2 MJE=0.3083 MJC=0.1416
+ TF=118.5E-12 TR=4.123E-9 ITF=0.5 VTF=3 XTF=6
+ EG=1.11 KF=1E-9 AF=1
+ VCEO=12 ICRATING=50M MFG=NSC)

