.model 2N3703 PNP(IS=650.6E-18 ISE=189.7E-15 ISC=0 XTI=3
+ BF=66.92 BR=4.197 IKF=1.079 IKR=0 XTB=1.5
+ VAF=115.7 VAR=35 VJE=0.65 VJC=0.65
+ RE=0.15 RC=0.715 RB=10
+ CJE=19.82E-12 CJC=14.76E-12 XCJC=0.75 FC=0.5
+ NF=1 NR=1 NE=1.829 NC=2 MJE=0.3357 MJC=0.5383
+ TF=761.3E-12 TR=120.6E-9 ITF=0.65 VTF=5 XTF=1.7
+ EG=1.11 KF=1E-9 AF=1
+ VCEO=30 ICRATING=500M MFG=NSC)

