.model 2N3859A NPN(IS=5.911E-15 ISE=5.911E-15 ISC=0 XTI=3
+ BF=393.6 BR=1.372 IKF=12.43E-3 IKR=0 XTB=1.5
+ VAF=62.37 VAR=21.5 VJE=0.65 VJC=0.65
+ RE=0.15 RC=1.61 RB=10
+ CJE=4.973E-12 CJC=4.017E-12 XCJC=0.75 FC=0.5
+ NF=1 NR=1 NE=1.271 NC=2 MJE=0.4146 MJC=0.3174
+ TF=818.2E-12 TR=4.761E-9 ITF=0.35 VTF=4 XTF=7
+ EG=1.11 KF=1E-9 AF=1
+ VCEO=30 ICRATING=100M MFG=NSC)

