.model 2N4123 NPN(IS=6.734E-15 ISE=6.734E-15 ISC=0 XTI=3
+ BF=335.3 BR=0.7925 IKF=61.27E-3 IKR=0 XTB=1.5
+ VAF=74.03 VAR=28 VJE=0.65 VJC=0.65
+ RE=0.1 RC=1 RB=10
+ CJE=4.493E-12 CJC=3.638E-12 XCJC=0.75 FC=0.5
+ NF=1 NR=1 NE=1.216 NC=2 MJE=0.2593 MJC=0.3085
+ TF=300.8E-12 TR=243.1E-9 ITF=0.4 VTF=4 XTF=2
+ EG=1.11 KF=1E-9 AF=1
+ VCEO=30 ICRATING=100M MFG=NSC)

