.model 2N4249 PNP(IS=6.734E-15 ISE=6.734E-15 ISC=0 XTI=3
+ BF=161.4 BR=2.767 IKF=0.1806 IKR=0 XTB=1.5
+ VAF=45.7 VAR=15 VJE=0.65 VJC=0.65
+ RE=0.15 RC=1.67 RB=10
+ CJE=7.5E-12 CJC=6.2E-12 XCJC=0.75 FC=0.5
+ NF=1 NR=1 NE=1.672 NC=2 MJE=0.2861 MJC=0.301
+ TF=467.4E-12 TR=10.54E-9 ITF=0.17 VTF=5 XTF=8
+ EG=1.11 KF=1E-9 AF=1
+ VCEO=60 ICRATING=50M MFG=NSC)

