.model 2N4401 NPN(IS=1.75E-12 ISE=5.92E-14 ISC=9.42E-14 XTI=3.00
+ BF=3.03E2 BR=1.00E-2 IKF=2.11E-1 IKR=1.00 XTB=1.5
+ VAF=3.60E2 VAR=1.64E1 VJE=3.00E-1 VJC=3.00E-1
+ RE=1.00E-2 RC=1.07 RB=8.63E1 RBM=1.00E-2 IRB=9.62E-3
+ CJE=2.64E-11 CJC=1.37E-11 XCJC=1.00 FC=5.00E-1
+ NF=1.10 NR=1.71 NE=1.26 NC=1.00 MJE=4.09E-1 MJC=4.89E-1
+ TF=5.16E-10 TR=233.7E-9 PTF=0 ITF=5.09E-1 VTF=1.09E5 XTF=1.64
+ EG=1.11 KF=1E-9 AF=1
+ VCEO=40 ICRATING=500E-3 MFG=SIEMENS)

