.model 2N4403 NPN(IS=2.32E-13 ISE=6.69E-16 ISC=1.65E-13 XTI=3.00
+ BF=3.08E2 BR=2.18E1 IKF=8.42E-1 IKR=1.00 XTB=1.5
+ VAF=1.41E2 VAR=1.35E1 VJE=3.49E-1 VJC=3.00E-1
+ RE=1.00E-2 RC=8.46E-1 RB=4.02E1 RBM=1.00E-2 IRB=1.25E-2
+ CJE=2.66E-11 CJC=1.93E-11 XCJC=1.00 FC=5.00E-1
+ NF=1.04 NR=1.12 NE=1.09 NC=1.13 MJE=4.60E-1 MJC=4.65E-1
+ TF=4.95E-10 TR=111.6E-9 PTF=0 ITF=3.36E-1 VTF=6.54 XTF=1.87E1
+ EG=1.11 KF=1E-9 AF=1
+ VCEO=40 ICRATING=500E-3 MFG=SIEMENS)

