.model 2N4917 PNP(IS=1.41E-15 ISE=0 ISC=0 XTI=3
+ BF=219.7 BR=4.894 IKF=80E-3 IKR=0 XTB=1.5
+ VAF=18.7 VAR=6.5 VJE=0.65 VJC=0.65
+ RE=0.15 RC=2.5 RB=10
+ CJE=8.063E-12 CJC=9.728E-12 XCJC=0.75 FC=0.5
+ NF=1 NR=1 NE=1.5 NC=2 MJE=0.3677 MJC=0.5776
+ TF=179.3E-12 TR=33.13E-9 ITF=0.4 VTF=4 XTF=6
+ EG=1.11 KF=1E-9 AF=1
+ VCEO=30 ICRATING=50M MFG=NSC)

