.model 2N5401 PNP(IS=21.48E-15 ISE=21.48E-15 ISC=0 XTI=3
+ BF=132.1 BR=3.661 IKF=0.1848 IKR=0 XTB=1.5
+ VAF=100 VAR=30 VJE=0.65 VJC=0.65
+ RE=0.15 RC=1.6 RB=10
+ CJE=73.39E-12 CJC=17.63E-12 XCJC=0.75 FC=0.5
+ NF=1 NR=1 NE=1.375 NC=2 MJE=0.3777 MJC=0.5312
+ TF=641.9E-12 TR=1.476E-9 ITF=0 VTF=0 XTF=0
+ EG=1.11 KF=1E-9 AF=1
+ VCEO=150 ICRATING=500E-3 MFG=NSC-FAIRCHILD)

