.model 2N5550 NPN(IS=2.511E-15 ISE=2.511E-15 ISC=0 XTI=3
+ BF=213.4 BR=3.24 IKF=0.3495 IKR=0 XTB=1.5
+ VAF=100 VAR=30 VJE=0.65 VJC=0.65
+ RE=0.1 RC=1 RB=10
+ CJE=18.79E-12 CJC=4.883E-12 XCJC=0.75 FC=0.5
+ NF=1 NR=1 NE=1.241 NC=2 MJE=0.3416 MJC=0.3047
+ TF=560.1E-12 TR=1.212E-9 ITF=50E-3 VTF=5 XTF=8
+ EG=1.11 KF=1E-9 AF=1
+ VCEO=140 ICRATING=500E-3 MFG=NSC-FAIRCHILD)

