.model 2N5769 NPN(IS=44.14E-15 ISE=91.95E-15 ISC=0 XTI=3
+ BF=78.32 BR=12.69E-3 IKF=0.3498 IKR=0 XTB=1.5
+ VAF=100 VAR=30 VJE=0.65 VJC=0.65
+ RE=0.06 RC=0.6 RB=10
+ CJE=4.5E-12 CJC=2.83E-12 XCJC=0.75 FC=0.5
+ NF=1 NR=1 NE=1.389 NC=2 MJE=0.2418 MJC=0.862
+ TF=227.6E-12 TR=1.073E-6 ITF=0.3 VTF=4 XTF=4
+ EG=1.11 KF=1E-9 AF=1
+ VCEO=15 ICRATING=200M MFG=NSC-FAIRCHILD)

