.SUBCKT 2N6044 1 2 3
* TERMINALS: C B E
* Motorola 80 Volt 8 Amp NPN Darlington Transistor 08-02-1993
Q1 1 2 4 QPWR .1
Q2 1 4 3 QPWR
R1 2 4 8K
R2 4 3 120
D1 3 1 DSUB
.MODEL QPWR NPN (IS=9.6P NF=1 BF=89.6 VAF=161 IKF=6.4 ISE=874P NE=2
+ BR=4 NR=1 VAR=20 IKR=9.6 RE=85M RB=.2 RC=62M XTB=1.5
+ CJE=1.52N VJE=.74 MJE=.45 CJC=150P VJC=1.1 MJC=.24 TF=16.95N TR=850N)
.MODEL DSUB D (IS=9.6P N=1 RS=50M BV=80 IBV=.001 CJO=150P TT=850N)
.ENDS

