.SUBCKT 2N6042 1 2 3
* TERMINALS: C B E
* Motorola 100 Volt 8 Amp PNP Darlington Transistor 08-02-1993
Q1 1 2 4 QPWR .1
Q2 1 4 3 QPWR
R1 2 4 8K
R2 4 3 120
D1 1 3 DSUB
.MODEL QPWR PNP (IS=9.6P NF=1 BF=96.6 VAF=180 IKF=4 ISE=641P NE=2
+ BR=4 NR=1 VAR=20 IKR=6 RE=85M RB=.2 RC=63M XTB=1.5
+ CJE=1.65N VJE=.74 MJE=.45 CJC=238P VJC=1.1 MJC=.24 TF=14.0N TR=700N)
.MODEL DSUB D (IS=9.6P N=1 RS=50M BV=100 IBV=.001 CJO=238P TT=700N)
.ENDS

