.SUBCKT 2N6040 1 2 3
* TERMINALS: C B E
* Motorola 60 Volt 8 Amp PNP Darlington Transistor 08-02-1993
Q1 1 2 4 QPWR .1
Q2 1 4 3 QPWR
R1 2 4 8K
R2 4 3 120
D1 1 3 DSUB
.MODEL QPWR PNP (IS=9.6P NF=1 BF=110 VAF=139 IKF=4 ISE=562P NE=2
+ BR=4 NR=1 VAR=20 IKR=6 RE=80M RB=.2 RC=60M XTB=1.5
+ CJE=1.65N VJE=.74 MJE=.45 CJC=238P VJC=1.1 MJC=.24 TF=15.3N TR=750N)
.MODEL DSUB D (IS=9.6P N=1 RS=50M BV=60 IBV=.001 CJO=238P TT=750N)
.ENDS

