.SUBCKT 2N6045 1 2 3
* TERMINALS: C B E
* Motorola 100 Volt 8 Amp NPN Darlington Transistor 08-02-1993
Q1 1 2 4 QPWR .1
Q2 1 4 3 QPWR
R1 2 4 8K
R2 4 3 120
D1 3 1 DSUB
.MODEL QPWR NPN (IS=9.6P NF=1 BF=85.5 VAF=180 IKF=6.4 ISE=917P NE=2
+ BR=4 NR=1 VAR=20 IKR=9.6 RE=89M RB=.25 RC=64M XTB=1.5
+ CJE=1.52N VJE=.74 MJE=.45 CJC=155P VJC=1.1 MJC=.24 TF=17.95N TR=845N)
.MODEL DSUB D (IS=9.6P N=1 RS=50M BV=100 IBV=.001 CJO=155P TT=845N)
.ENDS

