.SUBCKT 2N6668 1 2 3
* TERMINALS: C B E
Q1 1 2 4 QPWR .1
Q2 1 4 3 QPWR
R1 2 4 8K
R2 4 3 120
D1 1 3 DSUB
.MODEL QPWR PNP (IS=12P NF=1 BF=156 VAF=160 IKF=5.5
+ ISE=21.2P NE=2 BR=4 NR=1 VAR=20 IKR=8.25 RE=.115 RB=.46
+ RC=46M XTB=1.5 CJE=22.30N CJC=264P TF=5.5P TR=500N)
.MODEL DSUB D (IS=12P N=1 RS=.115 BV=80 IBV=.001
+ CJO=264P TT=570N)
.ENDS
* 80 Volt 10 Amp PNP Darlington

