.model 2N6786 NMOS(Level=3 Gamma=0 Delta=0 Eta=0 Theta=0 Kappa=0.2 Vmax=0 Xj=0
+ Tox=100n Uo=600 Phi=.6 Rs=.3444 Kp=21.11u W=.21 L=2u Vto=3.906
+ Rd=2.878 Rds=1.778MEG Cbd=215.7p Pb=.8 Mj=.5 Fc=.5 Cgso=1.179n
+ Cgdo=103.2p Rg=10.06 Is=1.034n N=1 Tt=2300n)
* IR pid=2N6786 case=TO39

