.model 2N6784 NMOS(Level=3 Gamma=0 Delta=0 Eta=0 Theta=0 Kappa=0.2 Vmax=0 Xj=0
+ Tox=100n Uo=600 Phi=.6 Rs=.3735 Kp=20.86u W=.23 L=2u Vto=3.274
+ Rd=.5583 Rds=888.9K Cbd=304.5p Pb=.8 Mj=.5 Fc=.5 Cgso=517.7p
+ Cgdo=61.68p Rg=26.49 Is=478.4f N=1 Tt=1070n)
* IR pid=2N6784 case=TO39

