.model 2N6788 NMOS(Level=3 Gamma=0 Delta=0 Eta=0 Theta=0 Kappa=0.2 Vmax=0 Xj=0
+ Tox=100n Uo=600 Phi=.6 Rs=.1555 Kp=20.84u W=.38 L=2u Vto=3.011
+ Rd=54.91m Rds=444.4K Cbd=722.7p Pb=.8 Mj=.5 Fc=.5 Cgso=542p
+ Cgdo=142.9p Rg=63.13 Is=6.454f N=1 Tt=315n)
* IR pid=2N6788 case=TO39

