.model 2N6726A PNP(IS=24.64E-15 ISE=0 ISC=0 XTI=3
+ BF=154.5 BR=1.424 IKF=1.25 IKR=0 XTB=1.5
+ VAF=100 VAR=30 VJE=0.65 VJC=0.65
+ RE=0.06 RC=0.6 RB=10
+ CJE=132.4E-12 CJC=63.67E-12 XCJC=0.75 FC=0.5
+ NF=1 NR=1 NE=1.5 NC=2 MJE=0.4174 MJC=0.4749
+ TF=645.4E-12 TR=5.721E-9 ITF=0.8 VTF=6 XTF=4.5
+ EG=1.11 KF=1E-9 AF=1
+ VCEO=30 ICRATING=500E-3 MFG=NSC)

