.model 2N6728A PNP(IS=9.348E-15 ISE=12.45E-15 ISC=0 XTI=3
+ BF=166.8 BR=8.369 IKF=10.29 IKR=0 XTB=1.5
+ VAF=100 VAR=30 VJE=0.65 VJC=0.65
+ RE=0.15 RC=0.38 RB=10
+ CJE=105.6E-12 CJC=48E-12 XCJC=0.75 FC=0.5
+ NF=1 NR=1 NE=1.459 NC=2 MJE=0.4351 MJC=0.5152
+ TF=685.2E-12 TR=1.021E-9 ITF=0.3 VTF=4 XTF=10
+ EG=1.11 KF=1E-9 AF=1
+ VCEO=60 ICRATING=500E-3 MFG=NSC)

