.model 2N6767 NMOS(Level=3 Gamma=0 Delta=0 Eta=0 Theta=0 Kappa=0.2 Vmax=0 Xj=0
+ Tox=100n Uo=600 Phi=.6 Rs=13.98m Kp=20.77u W=.82 L=2u Vto=2.885
+ Rd=.2691 Rds=3.5MEG Cbd=3.018n Pb=.8 Mj=.5 Fc=.5 Cgso=9.503n
+ Cgdo=204.5p Rg=3.164 Is=902.5p N=1 Tt=865n)
* IR pid=2N6767 case=TO3

