.model 2N6758 NMOS(Level=3 Gamma=0 Delta=0 Eta=0 Theta=0 Kappa=0.2 Vmax=0 Xj=0
+ Tox=100n Uo=600 Phi=.6 Rs=.1145 Kp=19.85u W=1.1 L=2u Vto=3.391
+ Rd=.1199 Rds=2MEG Cbd=1.068n Pb=.8 Mj=.5 Fc=.5 Cgso=2.32n
+ Cgdo=68.35p Rg=6.086 Is=809.2f N=1 Tt=985n)
* Int'l Rectifier pid=2N6758 case=TO3

