.model 2N6796 NMOS(Level=3 Gamma=0 Delta=0 Eta=0 Theta=0 Kappa=0.2 Vmax=0 Xj=0
+ Tox=100n Uo=600 Phi=.6 Rs=.1049 Kp=20.65u W=.92 L=2u Vto=3.141
+ Rd=18.36m Rds=444.4K Cbd=1.217n Pb=.8 Mj=.5 Fc=.5 Cgso=679.6p
+ Cgdo=197.4p Rg=6.383 Is=3.403f N=1 Tt=308n)
* IR pid=2N6796 case=TO39

