.model 2N6761 NMOS(Level=3 Gamma=0 Delta=0 Eta=0 Theta=0 Kappa=0.2 Vmax=0 Xj=0
+ Tox=100n Uo=600 Phi=.6 Rs=98.25m Kp=20.62u W=.38 L=2u Vto=3.166
+ Rd=1.363 Rds=3.6MEG Cbd=791.9p Pb=.8 Mj=.5 Fc=.5 Cgso=1.709n
+ Cgdo=152.1p Rg=2.119 Is=12.62p N=1 Tt=1425n)
* IR pid=2N6761 case=TO3

