.model 2N6763 NMOS(Level=3 Gamma=0 Delta=0 Eta=0 Theta=0 Kappa=0.2 Vmax=0 Xj=0
+ Tox=100n Uo=600 Phi=.6 Rs=21.3m Kp=20.52u W=.51 L=2u Vto=3.061
+ Rd=7.905m Rds=600K Cbd=3.654n Pb=.8 Mj=.5 Fc=.5 Cgso=8.543n
+ Cgdo=2.163n Rg=7.955 Is=50.08f N=1 Tt=510n)
* IR pid=2N6763 case=TO3

