.model 2N6755 NMOS(Level=3 Gamma=0 Delta=0 Eta=0 Theta=0 Kappa=0.2 Vmax=0 Xj=0
+ Tox=100n Uo=600 Phi=.6 Rs=.1207 Kp=21.35u W=1.1 L=2u Vto=3.143
+ Rd=64.68m Rds=600K Cbd=1.273n Pb=.8 Mj=.5 Fc=.5 Cgso=729.7p
+ Cgdo=310.4p Rg=5.839 Is=44.21f N=1 Tt=370n)
* Int'l Rectifier pid=2N6755 case=TO3

