.model 2N6715 NPN(IS=2.218E-13 ISE=2.9E-14 ISC=2.971E-13 XTI=3
+ BF=185.2 BR=1.271 IKF=856.8E-3 IKR=0.1 XTB=1.5
+ VAF=100 VAR=30 VJE=0.65 VJC=0.595
+ RE=0.075 RC=0.15 RB=10
+ CJE=318E-12 CJC=51E-12 XCJC=0.75 FC=0.5
+ NF=0.9956 NR=0.995 NE=1.35 NC=1.321 MJE=0.3822 MJC=0.4937
+ TF=0.77E-9 TR=27E-9
+ EG=1.11 KF=1E-9 AF=1
+ VCEO=40 ICRATING=2 MFG=ZETEX)

