.model 2N6792 NMOS(Level=3 Gamma=0 Delta=0 Eta=0 Theta=0 Kappa=0.2 Vmax=0 Xj=0
+ Tox=100n Uo=600 Phi=.6 Rs=.1219 Kp=20.9u W=.23 L=2u Vto=3.025
+ Rd=1.317 Rds=1.778MEG Cbd=432.8p Pb=.8 Mj=.5 Fc=.5 Cgso=1.705n
+ Cgdo=149.2p Rg=1.136 Is=590.5f N=1 Tt=1720n)
* IR pid=2N6792 case=TO39

