.model 2N6802 NMOS(Level=3 Gamma=0 Delta=0 Eta=0 Theta=0 Kappa=0.2 Vmax=0 Xj=0
+ Tox=100n Uo=600 Phi=.6 Rs=.1084 Kp=20.88u W=.49 L=2u Vto=3.101
+ Rd=1.163 Rds=2.222MEG Cbd=732p Pb=.8 Mj=.5 Fc=.5 Cgso=1.725n
+ Cgdo=136.7p Rg=.824 Is=1.823p N=1 Tt=2060n)
* IR pid=2N6802 case=TO39

