.model 2N6806 PMOS(Level=3 Gamma=0 Delta=0 Eta=0 Theta=0 Kappa=0.2 Vmax=0 Xj=0
+ Tox=100n Uo=300 Phi=.6 Rs=.1722 Kp=10.45u W=2 L=2u Vto=-3.345
+ Rd=.5117 Rds=888.9MEG Cbd=783.8p Pb=.8 Mj=.5 Fc=.5 Cgso=1.984n
+ Cgdo=41.82p Rg=1.03 Is=759.7f N=4 Tt=555n)
* IR pid=2N6806 case=TO3

