.model 2SA970 PNP(Is=465.4f Xti=3 Eg=1.11 Vaf=57 Bf=407.6 Ise=4.683p Ne=2.051 
+ Ikf=.3998 Nk=1.192 Xtb=1.5 Var=100 Br=1 Isc=465.4f Nc=1.048 Ikr=6.032 Rc=2.343 
+ Cjc=11.59p Mjc=.4014 Vjc=1.155 Fc=.5 Cje=5p Mje=.3333 Vje=.75 Tr=10n Tf=1.252n 
+ Itf=1 Xtf=0 Vtf=10)

