.model AC127 NPN(IS=1.41f ISC=0  ISE=0 IKF=80m IKR=0 ITF=0.4 
+ NC=2 NE=1.5 BF=70 BR=4.977 RB=10 RC=2.5 CJC=9.728p CJE=8.063p
+ TR=33.42n TF=179.3p FC=0.5 EG=1.11 VJC=0.2 VJE=0.2 VTF=4
+ MJC=0.5776 MJE=0.3677 XTB=1.5 XTF=6 XTI=3 MFG=GERMANIUM-TYPE)

