.MODEL BC264B NJF (
+             VTO = -1.7564E+000
+            BETA = 1.18820E-003
+          LAMBDA = 1.87821E-002
+              RD = 9.84550E+000
+              RS = 9.84550E+000
+              IS = 3.20636E-016
+            CGS  = 2.15000E-012
+            CGD  = 2.20000E-012
+              PB = 7.73534E-001
+              FC = 5.00000E-001
)