.model BC337-16 NPN(IS=4.887E-14 ISE=2.552E-15 ISC=7.006E-14 XTI=3
+ BF=207.2 BR=21.85 IKF=0.902 IKR=0.1 XTB=1.5
+ VAF=184.8 VAR=20 VJE=0.6596 VJC=0.1419
+ RE=0.119 RC=0.25 RB=50 RBM=2 IRB=0.0002
+ CJE=4.217E-11 CJC=1.734E-11 XCJC=0.455 FC=0.652
+ NF=1.002 NR=1.002 NE=1.65 NC=1.25 MJE=0.3434 MJC=0.3484
+ TF=6E-10 TR=3.5E-08 PTF=86 ITF=0.79 VTF=2.4 XTF=2.1
+ EG=1.11 KF=1E-9 AF=1
+ VCEO=45 ICRATING=200M MFG=PHILIPS)

