.model BC337 NPN(IS=4.887E-14 mfg=Philips vceo=45 icrating=500m NF=1.002 ISE=2.552E-15 
+ NE=1.65 BF=207.2 IKF=0.902 VAF=184.8 NR=1.002 ISC=7.006E-14 NC=1.25 BR=21.85 IKR=0.1 
+ VAR=20 RB=50 IRB=0.0002 RBM=2 RE=0.119 RC=0.25 XTB=0 EG=1.11 XTI=3 CJE=4.217E-11 
+ VJE=0.6596 MJE=0.3434 TF=6E-10 XTF=2.1 VTF=2.4 ITF=0.79 PTF=86 CJC=1.734E-11 VJC=0.1419 
+ MJC=0.3484 XCJC=0.455 TR=3.5E-08 CJS=0 VJS=0.75 MJS=0.333 FC=0.652)

