.model BC337-25 NPN(IS=4.13E-14 ISE=3.534E-15 ISC=1.957E-13 XTI=3
+ BF=292.4 BR=23.68 IKF=0.9 IKR=0.1 XTB=1.5
+ VAF=145.7 VAR=20 VJE=0.6752 VJC=0.3523
+ RE=0.1129 RC=0.25 RB=60 RBM=8 IRB=0.0002
+ CJE=3.799E-11 CJC=1.355E-11 XCJC=0.455 FC=0.643
+ NF=0.9822 NR=0.982 NE=1.35 NC=1.3 MJE=0.3488 MJC=0.3831
+ TF=5.4E-10 TR=3E-08 PTF=90 ITF=0.665 VTF=4.448 XTF=4
+ EG=1.11 KF=1E-9 AF=1
+ VCEO=45 ICRATING=200M MFG=PHILIPS)

