.model BC337-40 NPN(IS=7.809E-14 ISE=2.069E-15 ISC=6.66E-14 XTI=3
+ BF=436.8 BR=44.14 IKF=0.8 IKR=0.09 XTB=1.5
+ VAF=103.6 VAR=14 VJE=0.6657 VJC=0.3647
+ RE=0.12 RC=0.24 RB=70 RBM=8 IRB=0.0002
+ CJE=3.579E-11 CJC=1.306E-11 XCJC=0.455 FC=0.843
+ NF=0.9916 NR=0.991 NE=1.4 NC=1.2 MJE=0.3596 MJC=0.3658
+ TF=5E-10 TR=2.5E-08 PTF=88 ITF=0.5 VTF=2 XTF=2.5
+ EG=1.11 KF=1E-9 AF=1
+ VCEO=45 ICRATING=200M MFG=PHILIPS)

