.model BC368P NPN(IS=2.474E-13 ISE=4.403E-14 ISC=2.009E-13 XTI=3
+ BF=196.2 BR=30.57 IKF=4.8360 IKR=0.3264 XTB=1.5
+ VAF=127.5 VAR=17.26 VJE=0.8011 VJC=0.5995
+ RE=0.1021 RC=9.070E-02 RB=1 RBM=1 IRB=1E-06
+ CJE=2.2260E-10 CJC=8.735E-11 XCJC=0.500 FC=0.6153
+ NF=0.9998 NR=0.9995 NE=1.400 NC=1.500 MJE=0.3833 MJC=0.4009
+ TF=6.469E-10 TR=1E-32 PTF=0 ITF=0.3542 VTF=1.735 XTF=1.257
+ EG=1.11 KF=1E-9 AF=1
+ VCEO=25 ICRATING=500E-3 MFG=PHILIPS)

