.model BC414B NPN(IS=1.8E-14 ISE=5.0E-14 ISC=1.72E-13 XTI=3
+ BF=400 BR=35.5 IKF=0.14 IKR=0.03 XTB=1.5
+ VAF=80 VAR=12.5 VJE=0.58 VJC=0.54
+ RE=0.6 RC=0.25 RB=0.56
+ CJE=13E-12 CJC=4E-12 XCJC=0.75 FC=0.5
+ NF=0.9955 NR=1.005 NE=1.46 NC=1.27 MJE=0.33 MJC=0.33
+ TF=0.64E-9 TR=50.72E-9
+ EG=1.11 KF=1E-9 AF=1
+ VCEO=45V ICRATING=100M MFG=ZETEX)

