.model BC560 PNP(IS=5.11839E-13 BF=200.0 NF=1.00811 Icrating=100m Vceo=45 BR=0.66 
+ NR=1 ISE=1.32082E-12 NE=1.5 ISC=5.24807E-12 NC=2 VAF=211.586 VAR=20 IKF=0.0448 
+ IKR=1.31826E-4 RB=200 RBM=0.496 IRB=1.584893E-5 RE=6.09 RC=8.05 CJC=9.014673E-12 
+ VJC=0.3068755 MJC=0.3580011 TF=1.06e-9)

