.model BC560C   PNP(IS=1.02f XTI=3 EG=1.11 VAF=34.62 BF=401.6 ISE=38.26p
+ NE=5.635 IKF=74.73m Nk=.512 Xtb=1.5 Br=9.011 Isc=1.517f
+ Nc=1.831 Ikr=.1469 Rc=1.151 Cjc=9.81p Mjc=.332 Vjc=.4865 Fc=.5
+ Cje=30p Mje=.3333 Vje=.5 Tr=10n Tf=524p Itf=.9847 Xtf=17.71
+ Vtf=10)
* MFG=PHILIPS pid=bc560c case=TO92
* 11-02-18 hjr

