.model BC807P PNP(IS=1.08E-13 ISE=2.713E-14 ISC=5.062E-13 XTI=3
+ BF=385.7 BR=20.57 IKF=0.3603 IKR=0.054 XTB=1.5
+ VAF=31.29 VAR=11.62 VJE=0.8911 VJC=0.62
+ RE=0.1415 RC=0.2623 RB=1 RBM=0.5 IRB=1E-06
+ CJE=5.114E-11 CJC=2.656E-11 XCJC=0.459 FC=0.99
+ NF=0.99 NR=0.9849 NE=1.4 NC=1.295 MJE=0.4417 MJC=0.4836
+ TF=7.359E-10 TR=5.00E-08 PTF=0 ITF=0.4393 VTF=3.813 XTF=1.859
+ EG=1.11 KF=1E-9 AF=1 MFG=PHILIPS)

