.model BC859A   PNP(IS=336.7f XTI=3 EG=1.11 VAF=106.8 BF=180.6 ISE=2.666p
+ NE=1.944 IKF=.1094 Nk=.4986 Xtb=1.5 Br=7.16 Isc=196p Nc=1.815
+ Ikr=9.677 Rc=2.791 Cjc=11.51p Mjc=.3626 Vjc=.5 Fc=.5 Cje=8.397p
+ Mje=.3865 Vje=.5 Tr=10n Tf=605.1p Itf=2.326 Xtf=20.43 Vtf=10)
* MFG=SIEMENS pid=bc859a case=SOT23
* 11-02-18 hjr

