.model BCP55P NPN(IS=6.119E-14 ISE=5.844E-15 ISC=1.342E-13 XTI=3
+ BF=130.4 BR=14.53 IKF=0.8 IKR=0.2049 XTB=1.5
+ VAF=54.27 VAR=30 VJE=0.6917 VJC=0.5
+ RE=0.1114 RC=0.082 RB=0.5 RBM=0.5 IRB=1E-06
+ CJE=1.234E-10 CJC=3.49E-11 XCJC=0.15 FC=0.9232
+ NF=0.9948 NR=0.9905 NE=1.469 NC=1.183 MJE=0.338 MJC=0.388
+ TF=6.543E-10 TR=1E-32 PTF=0 ITF=10 VTF=1.892 XTF=223.8
+ EG=1.11 KF=1E-9 AF=1 MFG=PHILIPS)

