.model BCP55S NPN(IS=3.06E-15 ISE=1.62E-16 ISC=4.08E-14 XTI=3.00
+ BF=1.29E2 BR=2.92 IKF=9.06E-1 IKR=1.00 XTB=1.5
+ VAF=7.24E2 VAR=5.46E1 VJE=3.00E-1 VJC=3.00E-1
+ RE=1.26E-2 RC=3.11E-1 RB=1.65E1 RBM=1.73E-2 IRB=2.38E-2
+ CJE=1.17E-10 CJC=4.85E-11 XCJC=1.00 FC=5.00E-1
+ NF=8.55E-1 NR=9.10E-1 NE=1.00 NC=1.00 MJE=4.22E-1 MJC=5.09E-1
+ TF=1.42E-9 TR=0 PTF=0 ITF=5.64E-1 VTF=9.99E5 XTF=7.75E-1
+ EG=1.11 KF=1E-9 AF=1
+ VCEO=40 ICRATING=800M MFG=SIEMENS)

