.model BCP51P PNP(IS=6.1530E-14 ISE=1.382E-16 ISC=6.480E-15 XTI=3
+ BF=150.8 BR=8.074 IKF=1.225 IKR=0.3627 XTB=1.5
+ VAF=105.4 VAR=18.20 VJE=0.7300 VJC=0.6591
+ RE=5.562E-02 RC=0.1449 RB=2 RBM=2 IRB=1E-06
+ CJE=1.157E-10 CJC=5.264E-11 XCJC=0.4401 FC=0.9427
+ NF=0.9911 NR=0.9965 NE=1.089 NC=1.022 MJE=0.3751 MJC=0.4533
+ TF=8.666E-10 TR=2.75E-07 PTF=0 ITF=0.4581 VTF=3.008 XTF=1.231
+ EG=1.11 KF=1E-9 AF=1
+ VCEO=40 ICRATING=800M MFG=PHILIPS)

