.model BCP69P PNP(IS=2.105E-13 ISE=3.766E-15 ISC=2.789E-11 XTI=3
+ BF=281.1 BR=45.67 IKF=2.834 IKR=0.344 XTB=1.5
+ VAF=44.23 VAR=7.259 VJE=0.8827 VJC=0.1427
+ RE=0.05919 RC=0.0262 RB=1 RBM=1 IRB=1E-06
+ CJE=2.046E-10 CJC=1.378E-10 XCJC=0.508 FC=0.309
+ NF=0.9952 NR=0.9869 NE=1.4 NC=2.447 MJE=0.448 MJC=0.3018
+ TF=7.919E-10 TR=1E-32 PTF=0 ITF=0.409 VTF=2.332 XTF=1.397
+ EG=1.11 KF=1E-9 AF=1
+ VCEO=40 ICRATING=800M MFG=PHILIPS)

