.model BCP70 PNP(IS=0.750E-12 ISE=1.850E-15 ISC=25.000E-15 XTI=5.0
+ BF=228.200 BR=130 IKF=1.220 IKR=2.200 XTB=2.100
+ VAF=16.500 VAR=5.0 VJE=1.200 VJC=0.720
+ RE=35.000E-3 RC=39.961E-3 RB=0.500 RBM=0.300 IRB=10.000E-3
+ CJE=0.295E-9 CJC=0.228E-9 XCJC=0.723 FC=0.500
+ NF=1.010 NR=1.007 NE=2.004 NC=1.078 MJE=0.600 MJC=0.320
+ TF=0.275E-9 TR=0.100E-6 PTF=1.0 ITF=2.500 VTF=2.500 XTF=0.800
+ EG=1.120 KF=1E-9 AF=1 MFG=SIEMENS)

