.model BCV61C NPN(IS=45.000E-15 ISE=55.668E-15 ISC=1.084E-12 XTI=3.200
+ BF=480 BR=7.745 IKF=0.708 IKR=1.0 XTB=1.400
+ VAF=74.0 VAR=14.0 VJE=0.690 VJC=0.750
+ RE=0.350 RC=1.445 RB=9.0 RBM=4.500 IRB=0.100E-3
+ CJE=13.050E-12 CJC=4.100E-12 XCJC=0.650 FC=0.750
+ NF=1.010 NR=1.015 NE=2.567 NC=4.063 MJE=0.375 MJC=0.420
+ TF=0.620E-9 TR=2.5E-9 PTF=1.0 ITF=0.720 VTF=1.0 XTF=68.0
+ EG=1.110 KF=1E-9 AF=1 MFG=SIEMENS)

