.model BCW66G   NPN(IS=893.9E-21 XTI=3 EG=1.11 VAF=100 BF=452.8 ISE=1.053E-18
+ NE=1.21 IKF=.9479 Nk=.6981 Xtb=1.5 Br=5.401 Isc=1.897f Nc=1.415
+ Ikr=3.105 Rc=.4201 Cjc=14.57p Mjc=.3333 Vjc=.5 Fc=.5 Cje=71.14p
+ Mje=.3333 Vje=.5 Tr=10n Tf=689.5p Itf=6.121 Xtf=23.27 Vtf=10)
* MFG=SIEMENS pid=bcw65g case=SOT23
* 11-02-18 hjr

