.model BCW65 NPN(IS=0.180E-12 ISE=8.480E-15 ISC=0.102E-12 XTI=4.800
+ BF=449.302 BR=16.919 IKF=0.820 IKR=0.663 XTB=1.500
+ VAF=95.0 VAR=13.0 VJE=0.850 VJC=0.780
+ RE=0.170 RC=0.289 RB=0.750 RBM=0.375 IRB=0.100E-3
+ CJE=63.400E-12 CJC=16.600E-12 XCJC=0.650 FC=0.750
+ NF=1.0 NR=1.005 NE=1.566 NC=1.764 MJE=0.372 MJC=0.433
+ TF=0.810E-9 TR=2.600E-9 PTF=1.0 ITF=0.450 VTF=1.500 XTF=4.300
+ EG=1.110 KF=1E-9 AF=1 MFG=SIEMENS)

