.model BCW68H   PNP(IS=44.97f XTI=3 EG=1.11 VAF=100 BF=550.3 ISE=233.3f
+ NE=1.478 IKF=.5906 Nk=.646 Xtb=1.5 Br=12.01 Isc=1.997p Nc=1.678
+ Ikr=9.679 Rc=.5562 Cjc=14.57p Mjc=.3333 Vjc=.5 Fc=.5 Cje=71.14p
+ Mje=.3333 Vje=.5 Tr=10n Tf=675.6p Itf=3.423 Xtf=96.44 Vtf=10)
* MFG=SIEMENS pid=bcw68h case=SOT23
* 11-02-18 hjr

