.model BCW61 PNP(IS=28.000E-15 ISE=24.903E-15 ISC=0.125E-12 XTI=3.300
+ BF=284.436 BR=4.800 IKF=0.380 IKR=0.932 XTB=1.600
+ VAF=43.0 VAR=6.960 VJE=1.0 VJC=0.900
+ RE=0.300 RC=2.251 RB=2.200 RBM=1.500 IRB=0.100E-3
+ CJE=11.800E-12 CJC=8.700E-12 XCJC=0.650 FC=0.750
+ NF=1.0 NR=1.005 NE=2.234 NC=2.074 MJE=0.435 MJC=0.600
+ TF=0.600E-9 TR=2.604E-9 PTF=1.0 ITF=0.314 VTF=2.0 XTF=6.500
+ EG=1.110 KF=1E-9 AF=1
+ VCEO=45V ICRATING=100M MFG=SIEMENS)

