.model BCW61FN  PNP(IS=26.39f XTI=3 EG=1.11 VAF=35.7 BF=464.5 ISE=227f NE=2.108
+ IKF=.1247 Nk=.5 Xtb=1.5 Br=7.094 Isc=90.49p Nc=2.24 Ikr=.4226
+ Rc=2.604 Cjc=11.51p Mjc=.3626 Vjc=.5 Fc=.5 Cje=8.397p Mje=.3865
+ Vje=.5 Tr=10n Tf=591.1p Itf=.7698 Xtf=230.9 Vtf=1)
* MFG=SIEMENS pid=bcw61fn case=SOT23
* 11-02-18 hjr

