.model BCW67B   PNP(IS=44.97f XTI=3 EG=1.11 VAF=100 BF=373.4 ISE=600f NE=1.538
+ IKF=.6542 Nk=.669 Xtb=1.5 Br=12.01 Isc=1.997p Nc=1.678
+ Ikr=9.679 Rc=.5562 Cjc=14.57p Mjc=.3333 Vjc=.5 Fc=.5 Cje=71.14p
+ Mje=.3333 Vje=.5 Tr=10n Tf=669.8p Itf=1.943 Xtf=37.78 Vtf=10)
* MFG=SIEMENS pid=bcw67b case=SOT23
* 11-02-18 hjr

