.model BCW60A   NPN(IS=26.39f XTI=3 EG=1.11 VAF=106.8 BF=167.4 ISE=254.6f
+ NE=1.806 IKF=1.363 Nk=.5 Xtb=1.5 Br=9.901 Isc=20.57p Nc=1.912
+ Ikr=3.201 Rc=3.001 Cjc=11.51p Mjc=.3626 Vjc=.5 Fc=.5 Cje=8.397p
+ Mje=.3865 Vje=.5 Tr=10n Tf=597.7p Itf=2.959 Xtf=293.8 Vtf=10)
* MFG=SIEMENS pid=bcw60a case=SOT23
* 11-02-18 hjr

