.model BCW60D   NPN(IS=26.39f XTI=3 EG=1.11 VAF=35.7 BF=449.2 ISE=191.3f
+ NE=2.138 IKF=1.969 Nk=.5 Xtb=1.5 Br=9.116 Isc=14.45p Nc=1.778
+ Ikr=3.14 Rc=3.154 Cjc=11.51p Mjc=.3626 Vjc=.5 Fc=.5 Cje=8.397p
+ Mje=.3865 Vje=.5 Tr=10n Tf=596.3p Itf=2.629 Xtf=282 Vtf=10)
* MFG=SIEMENS pid=bcw60d case=SOT23
* 11-02-18 hjr

