.model BCW89 PNP(IS=1.149E-14 ISE=5E-14 ISC=1.43E-14 XTI=3
+ BF=330 BR=13 IKF=0.1 IKR=0.012 XTB=1.5
+ VAF=84.56 VAR=8.15 VJE=0.65 VJC=0.565
+ RE=0.4 RC=0.95 RB=0.2
+ CJE=16E-12 CJC=10.5E-12 XCJC=0.75 FC=0.5
+ NF=0.9872 NR=0.996 NE=1.4 NC=1.1 MJE=0.415 MJC=0.415
+ TF=0.493E-9 TR=73.55E-9
+ EG=1.11 KF=1E-9 AF=1
+ VCEO=45V ICRATING=100M MFG=ZETEX)

