.SUBCKT BCX38B 1 2 3
* C B E
Q1 1 2 4 SUB38B
Q2 1 4 3 SUB38B 12.75
*
.MODEL SUB38B NPN IS=1.1E-14 ISE=7.1E-15 NF=1.012 NE=1.4758 BF=147 IKF=.12
+BR=15 IKR=.05 RE=1.3 RC=.5 RB=.3 VAF=150 CJE=14.5E-12 CJC=4.14E-12
+VJC=.515 MJC=.26 TF=1.15E-9 TR=75E-9
.ENDS

