.model BCX51 PNP(IS=4.60E-12 ISE=1.99E-14 ISC=9.45E-17 XTI=3.00
+ BF=1.85E2 BR=4.28 IKF=9.69E-1 IKR=1.00 XTB=1.5
+ VAF=1.44E2 VAR=1.97E1 VJE=5.43E-1 VJC=3.62E-1
+ RE=1.00E-2 RC=2.62E-1 RB=4.84 RBM=1.00E1 IRB=1.62E-1
+ CJE=1.27E-10 CJC=8.00E-11 XCJC=1.00 FC=5.00E-1
+ NF=1.19 NR=1.23 NE=1.23 NC=2.00 MJE=4.94E-1 MJC=5.07E-1
+ TF=1.07E-9 TR=0 PTF=0 ITF=4.53E-1 VTF=9.99E5 XTF=6.31E-1
+ EG=1.11 KF=1E-9 AF=1
+ VCEO=40 ICRATING=800M MFG=SIEMENS)

