.model BCX68 NPN(IS=9.77E-14 ISE=1.49E-16 ISC=4.11E-14 XTI=3.00
+ BF=1.61E2 BR=3.66 IKF=7.74 IKR=1.00 XTB=1.5
+ VAF=5.63E2 VAR=3.49E1 VJE=3.00E-1 VJC=3.00E-1
+ RE=1.01E-2 RC=2.06E-1 RB=1.91E1 RBM=3.03 IRB=6.95E-2
+ CJE=2.52E-10 CJC=1.37E-10 XCJC=1.00 FC=5.00E-1
+ NF=9.64E-1 NR=1.23 NE=1.01 NC=1.02 MJE=4.11E-1 MJC=4.87E-1
+ TF=1.38E-9 TR=0 PTF=0 ITF=1.00E1 VTF=9.99E5 XTF=3.26E1
+ EG=1.11 KF=1E-9 AF=1
+ VCEO=40 ICRATING=800M MFG=SIEMENS)

