.model BCX69 PNP(IS=7.82E-15 ISE=3.05E-17 ISC=1.00E-17 XTI=3.00
+ BF=2.25E2 BR=9.96 IKF=5.88 IKR=1.00 XTB=1.5
+ VAF=1.00E2 VAR=5.00E1 VJE=5.03E-1 VJC=3.00E-1
+ RE=1.34E-1 RC=2.17E-2 RB=1.00E-2 RBM=1.00E-2 IRB=1.00E-6
+ CJE=3.28E-10 CJC=1.94E-10 XCJC=1.00 FC=5.00E-1
+ NF=8.54E-1 NR=8.80E-1 NE=1.00 NC=2.00 MJE=5.26E-1 MJC=4.03E-1
+ TF=1.39E-9 TR=0 PTF=0 ITF=4.21E1 VTF=9.99E5 XTF=4.93E2
+ EG=1.11 KF=1E-9 AF=1
+ VCEO=40 ICRATING=800M MFG=SIEMENS)

