.model BCY59-7  NPN(IS=64.04f XTI=3 EG=1.11 VAF=106.8 BF=4.957K ISE=6.195p
+ NE=1.686 IKF=12.15m Nk=.4944 Xtb=1.5 Br=2.624 Isc=2.92n
+ Nc=3.015 Ikr=3.889 Rc=1.149 Cjc=11.15p Mjc=.3333 Vjc=.5 Fc=.5
+ Cje=16.78p Mje=.3333 Vje=.5 Tr=638n Tf=410.8p Itf=15.08
+ Xtf=118.1 Vtf=10)
* MFG=PHILIPS pid=bcy59-7 case=TO18
* 11-02-18 hjr

