.model BCY59-8  NPN(IS=64.04f XTI=3 EG=1.11 VAF=79.03 BF=395.1 ISE=599f
+ NE=1.598 IKF=.1799 Nk=.6331 Xtb=1.5 Br=1 Isc=9.225n Nc=3.14
+ Ikr=16.96 Rc=1.286 Cjc=11.15p Mjc=.3333 Vjc=.5 Fc=.5 Cje=16.78p
+ Mje=.3333 Vje=.5 Tr=629.7n Tf=423.5p Itf=2.989 Xtf=106 Vtf=10)
* MFG=PHILIPS pid=bcy59-8 case=TO18
* 11-02-18 hjr

