.model BCY58-9  NPN(IS=64.04f XTI=3 EG=1.11 VAF=62.37 BF=473.2 ISE=549.7f
+ NE=1.721 IKF=.1237 Nk=.6057 Xtb=1.5 Br=1 Isc=22.53n Nc=3.624
+ Ikr=10.72 Rc=1.261 Cjc=11.15p Mjc=.3333 Vjc=.5 Fc=.5 Cje=16.78p
+ Mje=.3333 Vje=.5 Tr=622.7n Tf=423.4p Itf=3.503 Xtf=107 Vtf=10)
* MFG=PHILIPS pid=bcy58-9 case=TO18
* 11-02-18 hjr

