.model BD132 PNP(IS=2.171E-13 ISE=2.423E-14 ISC=3.626E-13 XTI=3
+ BF=133 BR=18.54 IKF=3.09 IKR=0.35 XTB=1.5
+ VAF=91 VAR=23 VJE=0.9472 VJC=0.1708
+ RE=0.19 RC=0.04082 RB=13 RBM=4.441E-10 IRB=0.0005946
+ CJE=3.968E-10 CJC=2.687E-10 XCJC=0.75 FC=0.78
+ NF=0.9918 NR=0.9926 NE=1.274 NC=1.193 MJE=0.4214 MJC=0.3977
+ TF=1.354E-09 TR=4.6E-08 PTF=0 ITF=3.692 VTF=7 XTF=7
+ EG=1.11 KF=1E-9 AF=1
+ VCEO=45 ICRATING=2 MFG=PHILIPS)

