.model BD137F NPN(IS=2.3985E-13 ISE=1.0471E-14 ISC=1.9314E-11 XTI=3
+ BF=244.9 BR=78.11 IKF=1.1863 IKR=0.1445 XTB=1.1398
+ VAF=98.5 VAR=7.46 VJE=0.67412 VJC=0.5258
+ RE=0.01 RC=0.1 RB=2.14 RBM=0.001 IRB=0.031
+ CJE=2.92702E-10 CJC=4.8831E-11 XCJC=0.5287 FC=0.5
+ NF=1 NR=1 NE=1.2 NC=1.45 MJE=0.3300 MJC=0.3928
+ EG=1.2105 KF=1E-9 AF=1
+ VCEO=60 ICRATING=1.5 MFG=FAIRCHILD)

