.model BD136P PNP(IS=7.401E-14 ISE=4.104E-16 ISC=1.290E-14 XTI=3
+ BF=336.5 BR=13.91 IKF=0.1689 IKR=9.888E-2 XTB=1.5
+ VAF=224.7 VAR=30.00 VJE=0.6900 VJC=0.6431
+ RE=0.208 RC=5.526E-02 RB=0.500 RBM=0.500 IRB=1E-06
+ CJE=1.066E-10 CJC=5.234E-11 XCJC=0.440 FC=0.990
+ NF=0.9938 NR=0.9913 NE=1.054 NC=1.100 MJE=0.3676 MJC=0.4436
+ TF=2.578E-10 TR=1E-25 PTF=0 ITF=1.3040 VTF=2.366 XTF=13.56
+ EG=1.11 KF=1E-9 AF=1
+ VCEO=45 ICRATING=1.5 MFG=PHILIPS)

