.model BD135P NPN(IS=4.815E-14 ISE=1.389E-14 ISC=1.295E-13 XTI=3
+ BF=124.2 BR=13.26 IKF=1.6 IKR=0.29 XTB=1.5
+ VAF=222 VAR=81.4 VJE=0.7313 VJC=0.5642
+ RE=0.165 RC=0.096 RB=0.5 RBM=0.5 IRB=1E-06
+ CJE=1.243E-10 CJC=3.04E-11 XCJC=0.15 FC=0.9359
+ NF=0.9897 NR=0.9895 NE=1.6 NC=1.183 MJE=0.3476 MJC=0.4371
+ TF=6.478E-10 TR=1E-32 PTF=0 ITF=3.35 VTF=2.648 XTF=29
+ EG=1.11 KF=1E-9 AF=1
+ VCEO=45 ICRATING=1.5 MFG=PHILIPS)

