.model BD244A PNP(IS=1.09078E-12 ISE=2.51189E-12 ISC=9.14539E-13 XTI=3
+ BF=240.3 BR=20.265 IKF=1.1124198 IKR=0.524807 XTB=1.3913
+ VAF=153.184 VAR=36.6808 VJE=0.5862666 VJC=0.4538756
+ RE=1.0135 RC=1.0135 RB=49.2185 RBM=0.727994 IRB=5.84552E-5
+ CJE=4.484304E-10 CJC=2.066303E-10 XCJC=0.6935 FC=0.5
+ NF=1.00172 NR=0.9935 NE=1.5 NC=1.21111 MJE=0.3243386 MJC=0.3323408
+ EG=1.2342 KF=1E-9 AF=1
+ VCEO=60 ICRATING=3 MFG=FAIRCHILD)

