.model BD243A NPN(IS=3.11126E-13 ISE=6.90683E-11 ISC=3.31131E-13 XTI=3
+ BF=93.0 BR=9.78891 IKF=5.62341 IKR=0.0382066 XTB=1.9711
+ VAF=174.5 VAR=122.381 VJE=0.6403992 VJC=0.4308133
+ RE=0.701391 RC=0.701391 RB=43.8404 RBM=0.436865 IRB=5.2264E-5
+ CJE=8.001919E-10 CJC=1.34699E-10 XCJC=0.5559 FC=0.5
+ NF=0.973751 NR=0.980115 NE=2.0 NC=1.09387 MJE=0.339666 MJC=0.347066
+ EG=1.2325 KF=1E-9 AF=1
+ VCEO=60 ICRATING=3 MFG=FAIRCHILD)

