.SUBCKT BD336 1 2 3
* TERMINALS: C B E
* SGS-Thompson 100 Volt 6 Amp PNP Darlington Transistor 07-20-1993
Q1 1 2 4 QPWR .1
Q2 1 4 3 QPWR
R1 2 4 13.3K
R2 4 3 66.7
D1 1 3 DSUB
.MODEL QPWR PNP (IS=7.2P NF=1 BF=154 VAF=180 IKF=4 ISE=347P NE=2
+ BR=4 NR=1 VAR=20 IKR=6 RE=91.7M RB=.366 RC=36.6M XTB=1.5
+ CJE=1.24N VJE=.74 MJE=.45 CJC=179P VJC=1.1 MJC=.24 TF=98.4N TR=1.78U)
.MODEL DSUB D (IS=7.2P N=1 RS=91.7M BV=100 IBV=.001 CJO=179P TT=1.78U)
.ENDS

