.SUBCKT BD333 1 2 3
* TERMINALS: C B E
* SGS-Thompson 80 Volt 6 Amp NPN Darlington Transistor 07-20-1993
Q1 1 2 4 QPWR .1
Q2 1 4 3 QPWR
R1 2 4 13.3K
R2 4 3 66.7
D1 3 1 DSUB
.MODEL QPWR NPN (IS=7.2P NF=1 BF=138 VAF=161 IKF=5.2 ISE=443P NE=2
+ BR=4 NR=1 VAR=20 IKR=7.8 RE=91.7M RB=.366 RC=36.6M XTB=1.5
+ CJE=809P VJE=.74 MJE=.45 CJC=116P VJC=1.1 MJC=.24 TF=98.4N TR=1.53U)
.MODEL DSUB D (IS=7.2P N=1 RS=91.7M BV=80 IBV=.001 CJO=116P TT=1.53U)
.ENDS

