.model BDP952 PNP(IS=0.800E-12 ISE=0.309E-12 ISC=0.200E-12 XTI=5.0
+ BF=250 BR=44.0 IKF=0.700 IKR=1.0 XTB=2.0
+ VAF=70.500 VAR=7.840 VJE=0.921 VJC=0.775
+ RE=50.000E-3 RC=59.947E-3 RB=0.250 RBM=0.200 IRB=10.000E-3
+ CJE=0.390E-9 CJC=0.139E-9 XCJC=0.720 FC=0.500
+ NF=0.995 NR=1.0 NE=2.330 NC=1.079 MJE=0.430 MJC=0.490
+ TF=0.730E-9 TR=0.100E-6 PTF=1.0 ITF=0.600 VTF=2.0 XTF=1.0
+ EG=1.125 KF=1E-9 AF=1 MFG=SIEMENS)

