.model BDP947 NPN(IS=0.650E-12 ISE=0.178E-12 ISC=38.669E-15 XTI=4.900
+ BF=237.934 BR=25.0 IKF=3.900 IKR=3.200 XTB=2.400
+ VAF=135.0 VAR=22.0 VJE=0.800 VJC=0.730
+ RE=45.000E-3 RC=0.173 RB=0.250 RBM=0.200 IRB=10.000E-3
+ CJE=0.430E-9 CJC=88.500E-12 XCJC=0.723 FC=0.500
+ NF=1.004 NR=1.015 NE=1.649 NC=1.062 MJE=0.350 MJC=0.435
+ TF=1.010E-9 TR=0.100E-6 PTF=1.0 ITF=0.900 VTF=0.350 XTF=0.900
+ EG=1.110 KF=1E-9 AF=1 MFG=SIEMENS)

