.SUBCKT BDV65 1 2 3
* TERMINALS: C B E
* SGS-Thompson 60 Volt 12 Amp NPN Darlington Transistor 07-20-1993
Q1 1 2 4 QPWR .1
Q2 1 4 3 QPWR
R1 2 4 6.67K
R2 4 3 33.3
D1 3 1 DSUB
.MODEL QPWR NPN (IS=14.4P NF=1 BF=89 VAF=139 IKF=9.6 ISE=1.32N NE=2
+ BR=4 NR=1 VAR=20 IKR=14.4 RE=55M RB=.22 RC=22M XTB=1.5
+ CJE=1.6N VJE=.74 MJE=.45 CJC=231P VJC=1.1 MJC=.24 TF=89.5N TR=2.21U)
.MODEL DSUB D (IS=14.4P N=1 RS=55M BV=60 IBV=.001 CJO=231P TT=2.21U)
.ENDS

