.SUBCKT BDV64 1 2 3
* TERMINALS: C B E
* SGS-Thompson 60 Volt 12 Amp PNP Darlington Transistor 07-20-1993
Q1 1 2 4 QPWR .1
Q2 1 4 3 QPWR
R1 2 4 6.67K
R2 4 3 33.3
D1 1 3 DSUB
.MODEL QPWR PNP (IS=14.4P NF=1 BF=81.3 VAF=139 IKF=8 ISE=1.32N NE=2
+ BR=4 NR=1 VAR=20 IKR=12 RE=55M RB=.22 RC=22M XTB=1.5
+ CJE=2.47N VJE=.74 MJE=.45 CJC=357P VJC=1.1 MJC=.24 TF=89.5N TR=1.87U)
.MODEL DSUB D (IS=14.4P N=1 RS=55M BV=60 IBV=.001 CJO=357P TT=1.87U)
.ENDS

