.SUBCKT BDW94 1 2 3
* TERMINALS: C B E
* SGS-Thompson 45 Volt 12 Amp PNP Darlington Transistor 07-20-1993
Q1 1 2 4 QPWR .1
Q2 1 4 3 QPWR
R1 2 4 10K
R2 4 3 150
D1 1 3 DSUB
.MODEL QPWR PNP (IS=14.4P NF=1 BF=102 VAF=120 IKF=4.8 ISE=808P NE=2
+ BR=4 NR=1 VAR=24 IKR=7.2 RE=53.3M RB=.213 RC=21.3M XTB=1.5
+ CJE=1.14N VJE=.74 MJE=.45 CJC=165P VJC=1.1 MJC=.24 TF=71.6N TR=2.72U)
.MODEL DSUB D (IS=14.4P N=1 RS=53.3M BV=45 IBV=.001 CJO=165P TT=2.72U)
.ENDS

