.SUBCKT BDW92 1 2 3
* TERMINALS: C B E
* SGS-Thompson 180 Volt 4 Amp PNP Darlington Transistor 07-20-1993
Q1 1 2 4 QPWR .1
Q2 1 4 3 QPWR
R1 2 4 10K
R2 4 3 150
D1 1 3 DSUB
.MODEL QPWR PNP (IS=4.8P NF=1 BF=69.2 VAF=241 IKF=2 ISE=447P NE=2
+ BR=4 NR=1 VAR=24 IKR=3 RE=62.5M RB=.25 RC=25M XTB=1.5
+ CJE=833P VJE=.74 MJE=.45 CJC=120P VJC=1.1 MJC=.24 TF=161N TR=3.74U)
.MODEL DSUB D (IS=4.8P N=1 RS=62.5M BV=180 IBV=.001 CJO=120P TT=3.74U)
.ENDS

