.SUBCKT BDW93B 1 2 3
* TERMINALS: C B E
* SGS-Thompson 80 Volt 12 Amp NPN Darlington Transistor 07-20-1993
Q1 1 2 4 QPWR .1
Q2 1 4 3 QPWR
R1 2 4 10K
R2 4 3 150
D1 3 1 DSUB
.MODEL QPWR NPN (IS=14.4P NF=1 BF=119 VAF=161 IKF=4 ISE=636P NE=2
+ BR=4 NR=1 VAR=24 IKR=6 RE=46.6M RB=.186 RC=18.6M XTB=1.5
+ CJE=700P VJE=.74 MJE=.45 CJC=101P VJC=1.1 MJC=.24 TF=71.6N TR=3.74U)
.MODEL DSUB D (IS=14.4P N=1 RS=46.6M BV=80 IBV=.001 CJO=101P TT=3.74U)
.ENDS

