.model BF240 NPN(IS=6.686E-16 ISE=1.84E-15 ISC=9.197E-15 XTI=3
+ BF=135 BR=6.24 IKF=0.06 IKR=0.05 XTB=1.5
+ VAF=116.5 VAR=5.34 VJE=0.55 VJC=0.1927
+ RE=0.6 RC=1.8 RB=1 RBM=0.5 IRB=0.01
+ CJE=2.288E-12 CJC=9.099E-13 XCJC=0.811 FC=0.8999
+ NF=0.9934 NR=1.003 NE=1.632 NC=1.133 MJE=0.2019 MJC=0.1982
+ TF=2.911E-10 TR=1E-32 PTF=0 ITF=0.1644 VTF=1.762 XTF=54.94
+ EG=1.11 KF=1E-9 AF=1 MFG=PHILIPS)

