.SUBCKT BF246A/PLP 10 20 30
J1 10 20 30 NJF
.MODEL NJF NJF
+             VTO = -5.3298E+000
+            BETA = 2.86527E-003
+          LAMBDA = 6.19323E-002
+              RD = 1.62278E+000
+              RS = 1.62278E+000
+              IS = 1.18582E-015
+            CGS  = 1.05000E-011
+            CGD  = 1.30000E-011
+              PB = 7.98217E-001
+              FC = 5.00000E-001
.ENDS
*
*$
