.model BF370R NPN(IS=1.519E-15 ISE=4.063E-14 ISC=2.05E-09 XTI=3
+ BF=84 BR=0.3731 IKF=0.15 IKR=0.01 XTB=1.5
+ VAF=44.28 VAR=29.6 VJE=0.6785 VJC=0.4973
+ RE=0.483 RC=1.57 RB=0.5 RBM=0.5 IRB=1E-06
+ CJE=3.753E-12 CJC=1.809E-12 XCJC=0.4 FC=0.9027
+ NF=0.994 NR=0.979 NE=1.6 NC=1.931 MJE=0.2947 MJC=0.191
+ TF=2.13E-10 TR=50E-9 PTF=0 ITF=1.834 VTF=2.3 XTF=107
+ EG=1.11 KF=1E-9 AF=1 MFG=PHILIPS)

