.SUBCKT BF410C/PLP 10 20 30
J1 10 20 30 NJF
.MODEL NJF NJF
+             VTO = -2.3973E+000
+            BETA = 1.31099E-003
+          LAMBDA = 1.70958E-002
+              RD = 3.03493E+000
+              RS = 3.03493E+000
+              IS = 5.66111E-014
+            CGS  = 3.42000E-012
+            CGD  = 2.68000E-012
+              PB = 8.25674E-001
+              FC = 5.00000E-001
.ENDS
*
*$
