.model BF470 PNP(IS=9.124E-15 ISE=1.672E-15 ISC=2.139E-13 XTI=3
+ BF=198.2 BR=1.256 IKF=0.13 IKR=0.1 XTB=1.5
+ VAF=465.9 VAR=13 VJE=0.8484 VJC=0.6298
+ RE=0.635 RC=1.42 RB=5 RBM=0.5 IRB=1E-06
+ CJE=1.447E-11 CJC=8.483E-12 XCJC=0.619 FC=0.99
+ NF=0.9904 NR=0.99 NE=1.527 NC=1.08 MJE=0.3884 MJC=0.4561
+ TF=1.38E-09 TR=1E-32 PTF=0 ITF=0.065 VTF=2 XTF=21.78
+ EG=1.11 KF=1E-9 AF=1 MFG=PHILIPS)

