.SUBCKT BF545C/PLP 10 20 30
J1 10 20 30 NJF
.MODEL NJF NJF
+             VTO = -5.0014E+000
+            BETA = 5.43157E-004
+          LAMBDA = 2.71505E-002
+              RD = 1.20869E+001
+              RS = 1.20869E+001
+              IS = 3.64346E-016
+            CGS  = 2.00000E-012
+            CGD  = 2.00000E-012
+              PB = 1.24659E+000
+              FC = 5.00000E-001
.ENDS
*
*$
