.SUBCKT BF545A/PLP 10 20 30
J1 10 20 30 NJF
.MODEL NJF NJF
+             VTO = -1.7372E+000
+            BETA = 1.16621E-003
+          LAMBDA = 1.77211E-002
+              RD = 9.01678E+000
+              RS = 9.01678E+000
+              IS = 2.91797E-016
+            CGS  = 2.20000E-012
+            CGD  = 2.20000E-012
+              PB = 7.80988E-001
+              FC = 5.00000E-001
.ENDS
*
*$
