.model BF550 PNP(IS=5.565E-16 ISE=4.594E-16 ISC=2.38E-16 XTI=3
+ BF=114 BR=4.5 IKF=0.034 IKR=0.00056 XTB=1.5
+ VAF=42.41 VAR=5 VJE=0.7931 VJC=0.9168
+ RE=0.4 RC=1.4 RB=21 RBM=0.73 IRB=0.0005556
+ CJE=1.536E-12 CJC=1.066E-12 XCJC=0.828 FC=0.9297
+ NF=0.9971 NR=0.9989 NE=1.4 NC=1 MJE=0.3515 MJC=0.397
+ TF=2E-10 TR=1E-32 PTF=0 ITF=0.06 VTF=3.7 XTF=7.5
+ EG=1.11 KF=1E-9 AF=1 MFG=PHILIPS)

