.model BF622S NPN(IS=6.46E-16 ISE=2.80E-17 ISC=2.89E-14 XTI=3.00
+ BF=1.23E2 BR=5.61 IKF=4.09E-2 IKR=1.00 XTB=1.5
+ VAF=4.15E2 VAR=4.30E2 VJE=3.00E-1 VJC=3.00E-1
+ RE=4.41E-1 RC=4.08E-1 RB=4.64E1 RBM=2.17E1 IRB=2.42E-2
+ CJE=4.19E-11 CJC=5.49E-12 XCJC=1.00 FC=5.00E-1
+ NF=9.11E-1 NR=1.86 NE=1.00 NC=1.03 MJE=3.90E-1 MJC=5.21E-1
+ TF=1.13E-9 TR=0 PTF=0 ITF=2.65 VTF=8.76E5 XTF=6.01E2
+ EG=1.11 KF=1E-9 AF=1
+ VCEO=40 ICRATING=800M MFG=SIEMENS)

