.model BF775A NPN(IS=2.2E-16 ISE=2.1E-15 ISC=1E-17 XTI=3
+ BF=312 BR=1 IKF=0.02 IKR=0.5 XTB=1.5
+ VAF=36 VAR=60 VJE=0.85 VJC=0.75
+ RE=0.9 RC=3.2 RB=26 RBM=2.2 IRB=0.25
+ CJE=2.5E-12 CJC=1E-14 XCJC=0.3 FC=0.5
+ NF=0.97 NR=1 NE=2.6 NC=2 MJE=0.33 MJC=0.33
+ TF=0 TR=0 PTF=0 ITF=0 VTF=1E30 XTF=0
+ EG=1.11 KF=1E-9 AF=1
+ VCEO=40 ICRATING=800M MFG=SIEMENS)

