.model BF799 NPN(IS=9.72E-16 ISE=2.26E-13 ISC=1.00E-13 XTI=3.00
+ BF=1.39E2 BR=1.00E-2 IKF=2.34E-1 IKR=1.00 XTB=1.5
+ VAF=6.40E1 VAR=1.29E1 VJE=4.75E-1 VJC=3.00E-1
+ RE=3.22E-2 RC=1.56 RB=1.00E-2 RBM=1.00E-2 IRB=2.25E-4
+ CJE=3.85E-12 CJC=2.37E-12 XCJC=1.00 FC=7.64E-1
+ NF=9.94E-1 NR=1.23 NE=1.75 NC=2.00 MJE=2.26E-1 MJC=2.40E-1
+ TF=1.37E-10 TR=0 PTF=0 ITF=4.64E-1 VTF=3.43E-1 XTF=1.00E2
+ EG=1.11 KF=1E-9 AF=1
+ VCEO=40 ICRATING=800M MFG=SIEMENS)

