.model BF822 NPN(IS=9.109E-15 ISE=5.02E-24 ISC=6.582E-12 XTI=3
+ BF=141.1 BR=11.42 IKF=0.009124 IKR=0.02146 XTB=1.5
+ VAF=22.16 VAR=93 VJE=0.7202 VJC=0.158
+ RE=0.3288 RC=0.5195 RB=1 RBM=0.5 IRB=1E-06
+ CJE=1.504E-11 CJC=3.751E-12 XCJC=0.1041 FC=0.895
+ NF=0.9949 NR=0.9917 NE=2.5 NC=1.397 MJE=0.3499 MJC=0.2757
+ TF=1.26E-09 TR=1E-08 PTF=0 ITF=0.1815 VTF=2.447 XTF=298.9
+ EG=1.11 KF=1E-9 AF=1 MFG=PHILIPS)

