.model BF840 NPN(IS=4.948E-16 ISE=1.08E-16 ISC=2.118E-16 XTI=3
+ BF=105.8 BR=2.665 IKF=0.08 IKR=0.05 XTB=1.5
+ VAF=125.5 VAR=5.34 VJE=0.5956 VJC=0.3305
+ RE=0.447 RC=1.9 RB=19.38 RBM=2.549 IRB=0.0009481
+ CJE=2.171E-12 CJC=7.61E-13 XCJC=0.811 FC=0.9221
+ NF=0.9871 NR=0.999 NE=1.26 NC=1 MJE=0.2307 MJC=0.2596
+ TF=3.062E-10 TR=5E-08 PTF=0 ITF=0.1344 VTF=1.48 XTF=54.94
+ EG=1.11 KF=1E-9 AF=1 MFG=PHILIPS)

