.SUBCKT BF861B/PLP 10 20 30
J1 10 20 30 NJF
.MODEL NJF NJF(VTO=-0.6391 BETA=0.01393 LAMBDA=0.04702 RD=3.577 
+    RS=3.577  IS=3.769E-16 CGS=6.025E-12 CGD=6.025E-12 PB=0.7072 FC=0.5)
.ENDS
*
*$
