.model BF869 NPN(IS=7.974E-15 ISE=2.266E-16 ISC=4.33E-12 XTI=3
+ BF=122 BR=6.235 IKF=0.01029 IKR=0.02746 XTB=1.5
+ VAF=25.51 VAR=19.43 VJE=0.4581 VJC=0.197
+ RE=0.3814 RC=0.439 RB=1 RBM=0.5 IRB=1E-06
+ CJE=1.742E-11 CJC=5.045E-12 XCJC=0.1041 FC=0.8555
+ NF=0.993 NR=0.999 NE=1.18 NC=1.397 MJE=0.3092 MJC=0.1947
+ TF=7.073E-10 TR=1E-08 PTF=0 ITF=0.1495 VTF=6.144 XTF=289.5
+ EG=1.11 KF=1E-9 AF=1 MFG=PHILIPS)

