.SUBCKT BF861C/PLP 10 20 30
J1 10 20 30 NJF
.MODEL NJF NJF(VTO=-1.145 BETA=0.01522 LAMBDA=0.04494 RD=15.2 RS=15.2
+   IS=4.157E-16 CGS=6.581E-12 CGD=6.581E-12 PB=0.7395 FC=0.5)
.ENDS
*
*$
