.model BFG196 NPN(IS=1.7264E-15 ISE=1.1922E-13 ISC=4.8666E-15 XTI=3
+ BF=125 BR=10.584 IKF=0.4294 IKR=0.019511 XTB=1.5
+ VAF=20 VAR=3.8128 VJE=0.7308 VJC=0.73057
+ RE=0.75103 RC=0.27137 RB=1.2907 RBM=1 IRB=8.4011E-5
+ CJE=1.3325E-14 CJC=1.667E-12 XCJC=0.29998 FC=0.50922
+ NF=0.80012 NR=0.94288 NE=1.1766 NC=0.88299 MJE=0.33018 MJC=0.3289
+ TF=2.3994E-11 TR=2.2413E-9 PTF=0 ITF=0.0019775 VTF=0.1 XTF=0.44322
+ EG=1.11 KF=1E-9 AF=1 MFG=SIEMENS)

