.model BFN21 PNP(IS=5.35E-16 ISE=9.81E-17 ISC=1.00E-13 XTI=3.00
+ BF=1.40E2 BR=1.00E-2 IKF=2.41E-2 IKR=1.00 XTB=1.5
+ VAF=1.49E2 VAR=9.18E1 VJE=3.00E-1 VJC=3.00E-1
+ RE=1.85E-2 RC=2.22 RB=1.99E1 RBM=2.41E-2 IRB=1.10E-2
+ CJE=4.20E-11 CJC=1.65E-11 XCJC=1.00 FC=5.00E-1
+ NF=8.73E-1 NR=9.84E-1 NE=1.03 NC=2.00 MJE=4.13E-1 MJC=7.00E-1
+ TF=1.11E-9 TR=0 PTF=0 ITF=3.00 VTF=9.99E5 XTF=5.76E2
+ EG=1.11 KF=1E-9 AF=1
+ VCEO=40 ICRATING=800M MFG=SIEMENS)

