.model BFN24 NPN(IS=1.59E-13 ISE=3.62E-16 ISC=9.06E-11 XTI=3.00
+ BF=7.04E1 BR=1.76E1 IKF=1.00E1 IKR=1.00 XTB=1.5
+ VAF=4.51E1 VAR=9.11E1 VJE=3.00E-1 VJC=4.64E-1
+ RE=4.19E-1 RC=4.11E-1 RB=3.23E1 RBM=7.75E-2 IRB=1.30E-3
+ CJE=1.31E-10 CJC=1.56E-11 XCJC=1.00 FC=5.00E-1
+ NF=1.03 NR=1.11 NE=1.21 NC=1.47 MJE=4.02E-1 MJC=5.80E-1
+ TF=1.73E-9 TR=0 PTF=0 ITF=1.33 VTF=9.99E5 XTF=1.00E2
+ EG=1.11 KF=1E-9 AF=1
+ VCEO=40 ICRATING=800M MFG=SIEMENS)

