.model BFP194 PNP(IS=4.574E-15 ISE=2.1629E-14 ISC=7.8447E-18 XTI=3
+ BF=111.78 NR=0.43618 IKF=0.84785 IKR=0.012843 XTB=1.5
+ VAF=9.1007 VAR=1.7871 VJE=0.84843 VJC=0.71631
+ RE=0.15908 RC=0.10833 RB=4.1356 RBM=0.75304 IRB=6.1674E-5
+ CJE=1.7699E-14 CJC=3.5856E-12 XCJC=0.063742 FC=0.90755
+ NF=0.66503 BR=92.296 NE=0.841 NC=1.6 MJE=0.48212 MJC=0.40003
+ TF=5.311E-11 TR=9.7481E-10 PTF=0 ITF=0.010453 VTF=0.10323 XTF=0.65766
+ EG=1.11 KF=1E-9 AF=1 MFG=SIEMENS)

