.model BFP182 NPN(IS=4.8499E-15 ISE=8.4254E-15 ISC=5.9438E-15 XTI=3
+ BF=84.113 NR=0.54818 IKF=0.14414 IKR=0.039478 XTB=1.5
+ VAF=21.742 VAR=2.2595 VJE=1.0378 VJC=1.0132
+ RE=2.1858 RC=1.8159 RB=3.4217 RBM=2.8263 IRB=7.1955E-5
+ CJE=8.8619E-15 CJC=4.9025E-13 XCJC=0.19281 FC=0.64175
+ NF=0.56639 BR=10.004 NE=0.91624 NC=0.5641 MJE=0.40796 MJC=0.31068
+ TF=2.272E-11 TR=1.7541E-9 PTF=0 ITF=0.0065523 VTF=0.34608 XTF=0.43147
+ EG=1.11 KF=1E-9 AF=1 MFG=SIEMENS)

