.model BFP193 NPN(IS=2.738E-16 ISE=1.0627E-14 ISC=3.7409E-17 XTI=3
+ BF=125 BR=14.267 IKF=0.26949 IKR=0.037925 XTB=1.5
+ VAF=24 VAR=3.8742 VJE=0.70276 VJC=1.1828
+ RE=0.76534 RC=0.11938 RB=1.8368 RBM=1 IRB=0.00091763
+ CJE=1.1824E-15 CJC=9.3503E-13 XCJC=0.053563 FC=0.72063
+ NF=0.95341 NR=1.4289 NE=1.935 NC=0.94371 MJE=0.48654 MJC=0.30002
+ TF=1.8828E-11 TR=1.0037E-9 PTF=0 ITF=0.00096893 VTF=0.8 XTF=0.69477
+ EG=1.11 KF=1E-9 AF=1 MFG=SIEMENS)

