.model BFP490 NPN(IS=4.5104E-16 ISE=1.591E-12 ISC=3.7479E-15 XTI=3
+ BF=114.96 NR=1.3531 IKF=0.76939 IKR=0.090033 XTB=1.5
+ VAF=24.664 VAR=16.035 VJE=0.93266 VJC=0.9832
+ RE=0.32476 RC=0.10737 RB=2.1262 RBM=1.0754 IRB=0.00017683
+ CJE=1.227E-15 CJC=6.1521E-12 XCJC=0.3 FC=0.75835
+ NF=1.1472 BR=21.04 NE=1.9962 NC=1.339 MJE=0.36885 MJC=0.34153
+ TF=3.9147E-12 TR=1.115E-9 PTF=0 ITF=0.0032793 VTF=0.27348 XTF=0.61664
+ EG=1.11 KF=1E-9 AF=1 MFG=SIEMENS)

