.model BFP420 NPN(IS=2.0045E-16 ISE=1.9049E-14 ISC=1.9237E-17 XTI=3
+ BF=72.534 BR=7.8287 IKF=0.48731 IKR=0.69141 XTB=1.5
+ VAF=28.383 VAR=19.705 VJE=0.8051 VJC=0.81969
+ RE=0.31111 RC=0.10105 RB=8.5757 RBM=3.4849 IRB=0.00072983
+ CJE=1.8063E-15 CJC=2.3453E-13 XCJC=0.3 FC=0.73234
+ NF=1.2432 NR=1.3325 NE=2.0518 NC=1.1724 MJE=0.46576 MJC=0.30232
+ TF=6.7661E-12 TR=2.3249E-9 PTF=0 ITF=0.001 VTF=0.23794 XTF=0.42199
+ EG=1.11 KF=1E-9 AF=1 MFG=SIEMENS)

