.model BFP450 NPN(IS=1.3125E-16 ISE=2.8341E-14 ISC=1.2292E-17 XTI=3
+ BF=76.123 NR=1.2966 IKF=0.58905 IKR=0.25878 XTB=1.5
+ VAF=24.165 VAR=13.461 VJE=0.95292 VJC=1.1487
+ RE=0.45346 RC=0.50084 RB=5.403 RBM=2.1659 IRB=1.3181E-5
+ CJE=3.2276E-15 CJC=1.0495E-12 XCJC=0.28285 FC=0.91274
+ NF=0.79652 BR=21.254 NE=1.5563 NC=0.70543 MJE=0.48672 MJC=0.50644
+ TF=7.5068E-12 TR=2.6912E-9 PTF=0 ITF=1.7655E-5 VTF=0.66148 XTF=0.69972
+ EG=1.11 KF=1E-9 AF=1 MFG=SIEMENS)

