.model BFP405 NPN(IS=2.1024E-16 ISE=1.5761E-14 ISC=3.7223E-17 XTI=3
+ BF=83.23 BR=10.526 IKF=0.16493 IKR=0.25052 XTB=1.5
+ VAF=39.251 VAR=34.368 VJE=0.70367 VJC=0.99532
+ RE=1.9289 RC=0.12691 RB=15 RBM=1.3491 IRB=0.00021215
+ CJE=3.7265E-15 CJC=9.6941E-14 XCJC=0.08161 FC=0.99469
+ NF=1.0405 NR=0.96647 NE=1.7763 NC=1.3152 MJE=0.37747 MJC=0.48652
+ TF=4.5899E-12 TR=1.4935E-9 PTF=0 ITF=0.0013364 VTF=0.19762 XTF=0.3641
+ EG=1.11 KF=1E-9 AF=1 MFG=SIEMENS)

