.model BFP520 NPN(IS=1.5E-17 ISE=2.5E-14 ISC=2E-14 XTI=0.035
+ BF=235 NR=1 IKF=0.4 IKR=0.01 XTB=-0.25
+ VAF=25 VAR=2 VJE=0.958 VJC=0.661
+ RE=0.6 RC=7.6 RB=11 RBM=7.5 IRB=0.00069278
+ CJE=2.35E-13 CJC=9.3E-14 XCJC=1 FC=0.5
+ NF=1 BR=1.5 NE=2 NC=2 MJE=0.335 MJC=0.236
+ TF=1.7E-12 TR=5E-8 PTF=50 ITF=0.7 VTF=5 XTF=10
+ EG=1.11 KF=1E-9 AF=1 MFG=SIEMENS)

