.model  BFQ181 NPN(IS=2.8E-16 ISE=1.95E-15 ISC=1E-17 XTI=3
+ BF=100 BR=1 IKF=0.018 IKR=0.5 XTB=1.5
+ VAF=35 VAR=360 VJE=0.85 VJC=0.75
+ RE=1 RC=4.5 RB=35.2 RBM=1.9 IRB=0.25
+ CJE=1E-12 CJC=1E-13 XCJC=0.3 FC=0.5
+ NF=1 NR=1 NE=4.95 NC=2 MJE=0.33 MJC=0.33
+ TF=0 TR=0 PTF=0 ITF=0 VTF=1E30 XTF=0
+ EG=1.11 KF=1E-9 AF=1
+ VCEO=40 ICRATING=800M MFG=SIEMENS)

