.model BFQ182 NPN(IS=2E-16 ISE=1.3E-14 ISC=1E-17 XTI=2
+ BF=70.22 BR=1 IKF=0.32 IKR=0.5 XTB=1.5
+ VAF=32.284 VAR=3.22 VJE=1.02 VJC=0.629
+ RE=0.45 RC=2.147 RB=9 RBM=0.9 IRB=0.251
+ CJE=8.66E-13 CJC=1.2E-13 XCJC=0.495 FC=0.497
+ NF=0.9 NR=1 NE=1.775 NC=2 MJE=0.353 MJC=0.734
+ TF=1.11E-11 TR=1.11E-11 PTF=0 ITF=0.1 VTF=1.705 XTF=19.761
+ EG=1.11 KF=1E-9 AF=1
+ VCEO=40 ICRATING=800M MFG=SIEMENS)

