.model BFQ31 NPN(IS=1.73E-13 ISE=241E-12 ISC=8.31E-13 XTI=3
+ BF=200 BR=3.124 IKF=8.8E-3 IKR=0.02 XTB=1.5
+ VAF=90 VAR=9.7 VJE=0.65 VJC=0.415
+ RE=2.13 RC=30 RB=17
+ CJE=2.27E-12 CJC=1.2E-12 XCJC=0.75 FC=0.5
+ NF=1 NR=0.9705 NE=1.701 NC=1.112 MJE=0.145 MJC=0.145
+ TF=0.2E-9 TR=1E-9
+ EG=1.11 KF=1E-9 AF=1
+ VCEO=45V ICRATING=100M MFG=ZETEX)

