.model BFQ82 NPN(IS=9.3E-16 ISE=3.9E-15 ISC=1E-17 XTI=3
+ BF=100 BR=1 IKF=0.055 IKR=0.5 XTB=1.5
+ VAF=41 VAR=217 VJE=0.85 VJC=0.75
+ RE=0.18 RC=2.8 RB=29 RBM=0.82 IRB=0.25
+ CJE=2.4E-11 CJC=5E-13 XCJC=0.01 FC=0.5
+ NF=0.96 NR=1 NE=2.43 NC=2 MJE=0.33 MJC=0.33
+ TF=0 TR=0 PTF=0 ITF=0 VTF=1E30 XTF=0
+ EG=1.11 KF=1E-9 AF=1
+ VCEO=40 ICRATING=800M MFG=SIEMENS)

