.model BFR180 NPN(IS=1.8519E-16 ISE=1.3093E-13 ISC=6.1852E-15 XTI=3
+ BF=94.687 BR=20.325 IKF=0.025252 IKR=0.012138 XTB=1.5
+ VAF=26.867 VAR=3.2134 VJE=1.1812 VJC=1.1812
+ RE=3.7045 RC=0.56 RB=60 RBM=1.4255 IRB=1E-5
+ CJE=3.2473E-15 CJC=1.8369E-13 XCJC=0.08334 FC=0.87906
+ NF=1.0236 NR=0.93013 NE=1.9818 NC=1.6195 MJE=0.41827 MJC=0.30423
+ TF=1.4866E-11 TR=2.2648E-9 PTF=0 ITF=0.0010202 VTF=0.22023 XTF=0.3062
+ EG=1.11 KF=1E-9 AF=1 MFG=SIEMENS)

