.model BFR183 NPN(IS=1.0345E-15 ISE=1.6818E-14 ISC=1.3559E-15 XTI=3
+ BF=115.98 NR=0.99543 IKF=0.14562 IKR=0.013483 XTB=1.5
+ VAF=14.772 VAR=3.4276 VJE=1.0792 VJC=1.1967
+ RE=1.3435 RC=0.20486 RB=2.5426 RBM=1.0112 IRB=0.00043801
+ CJE=2.3077E-14 CJC=4.6011E-13 XCJC=0.053823 FC=0.54852
+ NF=0.80799 BR=10.016 NE=1.2149 NC=0.85331 MJE=0.45354 MJC=0.3
+ TF=2.2746E-11 TR=1.0553E-9 PTF=0 ITF=0.0018773 VTF=0.50905 XTF=0.36823
+ EG=1.11 KF=1E-9 AF=1 MFG=SIEMENS)

