.model BFR280 NPN(IS=6.472E-15 ISE=1.5596E-14 ISC=1.409E-15 XTI=3
+ BF=89.888 BR=20.238 IKF=0.073457 IKR=0.012696 XTB=1.5
+ VAF=25.609 VAR=5.6909 VJE=0.70035 VJC=1.1943
+ RE=2.4518 RC=6.989 RB=15 RBM=14.999 IRB=3.1958E-5
+ CJE=3.6218E-14 CJC=2.5299E-13 XCJC=0.19188 FC=0.96275
+ NF=1.0801 NR=0.83403 NE=1.6163 NC=1.0651 MJE=0.69773 MJC=0.30017
+ TF=1.1744E-11 TR=2.3693E-9 PTF=0 ITF=0.0062179 VTF=0.2035 XTF=0.21585
+ EG=1.11 KF=1E-9 AF=1 MFG=SIEMENS)

