.model BFR35A NPN(IS=1.213E-16 ISE=1.2955E-13 ISC=7.5557E-16 XTI=3
+ BF=94.733 NR=0.8983 IKF=0.46227 IKR=0.01 XTB=1.5
+ VAF=30 VAR=14.599 VJE=0.70618 VJC=0.84079
+ RE=0.29088 RC=0.13793 RB=14.998 RBM=7.8145 IRB=1.652E-5
+ CJE=1.0416E-14 CJC=9.4647E-13 XCJC=0.13464 FC=0.99545
+ NF=1.0947 BR=10.729 NE=1.9052 NC=1.371 MJE=0.34686 MJC=0.4085
+ TF=2.6796E-11 TR=1.2744E-9 PTF=0 ITF=0.0044601 VTF=0.32861 XTF=0.3817
+ EG=1.11 KF=1E-9 AF=1 MFG=SIEMENS)

