.model BFR93A NPN(IS=8.6752E-15 ISE=2.6193E-12 ISC=7.0823E-16 XTI=3
+ BF=137.63 NR=0.88761 IKF=0.33395 IKR=0.015129 XTB=1.5
+ VAF=20.011 VAR=26.834 VJE=0.70393 VJC=0.72744
+ RE=1.0075 RC=0.13193 RB=7.2326 RBM=3.4649 IRB=4.3806E-5
+ CJE=3.1538E-15 CJC=1.0395E-12 XCJC=0.21422 FC=0.75935
+ NF=0.93633 BR=59 NE=1.5466 NC=1.95 MJE=0.5071 MJC=0.34565
+ TF=3.3388E-11 TR=1.1061E-9 PTF=0 ITF=0.0025184 VTF=0.17765 XTF=0.28319
+ EG=1.11 KF=1E-9 AF=1 MFG=SIEMENS)

