.model BFS19 NPN(IS=2.9320E-16 ISE=1.814E-15 ISC=3.133E-16 XTI=3
+ BF=84.24 BR=2.933 IKF=0.1702 IKR=9.000 XTB=1.5
+ VAF=130.5 VAR=4.860 VJE=0.6927 VJC=0.3932
+ RE=0.8047 RC=0.9861 RB=1 RBM=1 IRB=1E-06
+ CJE=1.922E-12 CJC=1.554E-12 XCJC=0.1200 FC=0.9333
+ NF=0.9869 NR=0.9848 NE=1.411 NC=0.9935 MJE=0.3045 MJC=0.1891
+ TF=6.298E-10 TR=1.00E-07 PTF=0 ITF=0.4458 VTF=5.391 XTF=113.6
+ EG=1.11 KF=1E-9 AF=1 MFG=PHILIPS)

