.model BFS18 NPN(IS=5.7880E-16 ISE=1.078E-15 ISC=4.317E-16 XTI=3
+ BF=115.2 BR=4.540 IKF=7.822E-02 IKR=2.986E-02 XTB=1.5
+ VAF=79.23 VAR=20.64 VJE=0.6720 VJC=0.4244
+ RE=0.7900 RC=0.7958 RB=1 RBM=1 IRB=1E-06
+ CJE=1.901E-12 CJC=1.625E-12 XCJC=0.1200 FC=0.8118
+ NF=0.9898 NR=0.9896 NE=1.516 NC=1.009 MJE=0.2981 MJC=0.1884
+ TF=4.932E-10 TR=1.00E-08 PTF=0 ITF=0.1208 VTF=6.182 XTF=300
+ EG=1.11 KF=1E-9 AF=1 MFG=PHILIPS)

