.model BFS20 NPN(IS=3.4640E-16 ISE=1.00E-15 ISC=1.231E-15 XTI=3
+ BF=147.8 BR=4.078 IKF=0.1343 IKR=0.1809 XTB=1.5
+ VAF=117.1 VAR=1.954 VJE=0.5979 VJC=0.5323
+ RE=0.7337 RC=1.1040 RB=1 RBM=1 IRB=1E-06
+ CJE=2.372E-12 CJC=0.842E-12 XCJC=0.1500 FC=0.9793
+ NF=0.9740 NR=0.9420 NE=1.508 NC=1.148 MJE=0.170 MJC=0.2749
+ TF=2.089E-10 TR=2.00E-08 PTF=0 ITF=0.2547 VTF=1.451 XTF=198.3
+ EG=1.11 KF=1E-9 AF=1 MFG=PHILIPS)

