.model BFS481 NPN(IS=1.0519E-18 ISE=1.2603E-14 ISC=1.1195E-17 XTI=3
+ BF=96.461 NR=0.87757 IKF=0.12146 IKR=0.24951 XTB=1.5
+ VAF=22.403 VAR=5.1127 VJE=0.73155 VJC=1.1633
+ RE=2.1372 RC=2.2171 RB=9.9037 RBM=6.6315 IRB=0.00069278
+ CJE=1.8168E-15 CJC=3.1969E-13 XCJC=0.082903 FC=0.99768
+ NF=0.90617 BR=16.504 NE=1.7631 NC=1.6528 MJE=0.43619 MJC=0.30013
+ TF=1.7028E-11 TR=2.7449E-9 PTF=0 ITF=0.0010549 VTF=0.12571 XTF=0.33814
+ EG=1.11 KF=1E-9 AF=1 MFG=SIEMENS)

