.model BFT93 PNP(IS=1.0366E-15 ISE=1.6295E-14 ISC=9.4971E-17 XTI=3
+ BF=80 NR=1.2907 IKF=0.47497 IKR=0.012081 XTB=1.5
+ VAF=8.4866 VAR=9.5149 VJE=0.84456 VJC=1.0282
+ RE=1.9597 RC=1.1393 RB=3.2133 RBM=2.0822 IRB=0.00046855
+ CJE=2.0636E-14 CJC=2.6904E-12 XCJC=0.075977 FC=0.54298
+ NF=1.0313 BR=16.116 NE=1.3702 NC=1.038 MJE=0.68352 MJC=0.5401
+ TF=5.4303E-11 TR=3.4233E-10 PTF=0 ITF=0.0030573 VTF=0.19311 XTF=0.27447
+ EG=1.11 KF=1E-9 AF=1 MFG=SIEMENS)

