.model BFT92 PNP(IS=4.5354E-15 ISE=1.2196E-14 ISC=2.4709E-17 XTI=3
+ BF=98.533 NR=1.2703 IKF=0.016123 IKR=0.019729 XTB=1.5
+ VAF=10.983 VAR=47.577 VJE=0.79082 VJC=1.2
+ RE=1.5119 RC=0.66749 RB=7.9562 RBM=1.5939 IRB=0.00079584
+ CJE=1.7785E-15 CJC=9.2207E-13 XCJC=0.3 FC=0.75167
+ NF=0.90551 BR=10.297 NE=1.1172 NC=1.206 MJE=0.32167 MJC=0.3
+ TF=3.2171E-11 TR=2.0779E-9 PTF=0 ITF=1.3277E-5 VTF=0.21451 XTF=0.30227
+ EG=1.11 KF=1E-9 AF=1 MFG=SIEMENS)

