.model BFV420 NPN(IS=2E-14 ISE=8.61E-13 ISC=1.063E-12 XTI=3
+ BF=335.9 BR=20.05 IKF=0.195 IKR=0.03 XTB=1.5
+ VAF=303.4 VAR=23 VJE=0.773 VJC=0.05
+ RE=0.388 RC=0.45 RB=36.6 RBM=7.069 IRB=0.0001391
+ CJE=1.611E-11 CJC=3.38E-12 XCJC=0.553 FC=0.909
+ NF=0.9861 NR=0.989 NE=1.751 NC=1.35 MJE=0.3749 MJC=0.2154
+ TF=6.79E-10 TR=7.14E-08 PTF=0 ITF=0.1806 VTF=2.217 XTF=19.83
+ EG=1.11 KF=1E-9 AF=1 MFG=PHILIPS)

