.model BFV421 PNP(IS=2.508E-14 ISE=9.673E-15 ISC=1.695E-12 XTI=3
+ BF=256.8 BR=3.903 IKF=0.17 IKR=0.03 XTB=1.5
+ VAF=114.9 VAR=15 VJE=0.9 VJC=0.6865
+ RE=0.5 RC=0.69 RB=64.07 RBM=10.57 IRB=0.0001398
+ CJE=1.572E-11 CJC=9.067E-12 XCJC=0.5 FC=0.8
+ NF=0.9935 NR=0.988 NE=1.469 NC=1.3 MJE=0.4352 MJC=0.4535
+ TF=6.868E-10 TR=1.2E-07 PTF=55 ITF=0.1102 VTF=1.488 XTF=19.57
+ EG=1.11 KF=1E-9 AF=1 MFG=PHILIPS)

