.model BFY55    NPN(IS=3.367p XTI=3 EG=1.11 VAF=310.9 BF=94.46 ISE=33.05p
+ NE=1.483 IKF=.5451 Nk=.4767 Xtb=1.5 Br=8.334 Isc=34.05p
+ Nc=1.468 Ikr=.6541 Rc=.6467 Cjc=28.15p Mjc=.3333 Vjc=.5 Fc=.5
+ Cje=93.85p Mje=.3333 Vje=.5 Tr=49.58n Tf=1.782n Itf=49.71
+ Xtf=9.095K Vtf=10)
* MFG=PHILIPS pid=bcy55 case=TO39
* 11-02-18 hjr

