.model BSP19 NPN(IS=1.524E-14 ISE=6.205E-15 ISC=5.528E-13 XTI=3
+ BF=99.15 BR=2.769 IKF=0.287 IKR=0.1 XTB=1.5
+ VAF=222.6 VAR=1000 VJE=0.6926 VJC=0.1878
+ RE=0.25 RC=1.08 RB=28.54 RBM=11.96 IRB=0.0001965
+ CJE=4.144E-11 CJC=6.207E-12 XCJC=0.4132 FC=0.8605
+ NF=0.9939 NR=0.98 NE=1.35 NC=1.3 MJE=0.338 MJC=0.1811
+ TF=1.3E-09 TR=5.5E-07 PTF=0 ITF=0.08 VTF=3.5 XTF=40
+ EG=1.11 KF=1E-9 AF=1 MFG=PHILIPS)

