.model BSP31 PNP(IS=6.330E-14 ISE=8.576E-17 ISC=6.121E-15 XTI=3
+ BF=191.4 BR=11.65 IKF=1.3660 IKR=0.2553 XTB=1.5
+ VAF=106.1 VAR=13.41 VJE=0.7589 VJC=0.7124
+ RE=5.555E-02 RC=0.1597 RB=2 RBM=2 IRB=1E-06
+ CJE=1.036E-10 CJC=5.025E-11 XCJC=0.3899 FC=0.800
+ NF=0.9938 NR=0.9976 NE=1.045 NC=1.021 MJE=0.3930 MJC=0.5012
+ TF=7.518E-10 TR=2.25E-07 PTF=0 ITF=1.9360 VTF=1.806 XTF=8.402
+ EG=1.11 KF=1E-9 AF=1 MFG=PHILIPS)

