.model BSS63 PNP(IS=7.59E-14 ISE=1.90E-14 ISC=1.72E-12 XTI=3.00
+ BF=1.52E2 BR=1.16E-1 IKF=1.18E-1 IKR=1.00 XTB=1.5
+ VAF=3.28E2 VAR=2.61E1 VJE=3.15E-1 VJC=3.00E-1
+ RE=1.00E-2 RC=8.89E-1 RB=2.42 RBM=4.95 IRB=8.03E-2
+ CJE=5.74E-11 CJC=3.90E-11 XCJC=1.00 FC=5.00E-1
+ NF=1.01 NR=1.21 NE=1.27 NC=2.00 MJE=4.41E-1 MJC=4.85E-1
+ TF=8.18E-10 TR=0 PTF=0 ITF=1.28 VTF=9.99E5 XTF=5.01
+ EG=1.11 KF=1E-9 AF=1
+ VCEO=40 ICRATING=800M MFG=SIEMENS)

