.model BSS64 NPN(IS=1.69E-12 ISE=3.23E-14 ISC=9.92E-13 XTI=3.00
+ BF=1.70E2 BR=9.55E-2 IKF=2.13E-1 IKR=1.00 XTB=1.5
+ VAF=7.00E2 VAR=8.58E1 VJE=3.00E-1 VJC=3.00E-1
+ RE=1.00E-2 RC=5.54E-1 RB=7.17 RBM=1.00E1 IRB=6.59E-2
+ CJE=4.69E-11 CJC=2.58E-11 XCJC=1.00 FC=5.00E-1
+ NF=1.20 NR=1.41 NE=1.28 NC=2.00 MJE=3.97E-1 MJC=5.11E-1
+ TF=1.50E-9 TR=0 PTF=0 ITF=6.20 VTF=1.00E6 XTF=1.00E2
+ EG=1.11 KF=1E-9 AF=1
+ VCEO=40 ICRATING=800M MFG=SIEMENS)

