.model BST15 PNP(IS=4E-14 ISE=8E-15 ISC=8E-12 XTI=3
+ BF=105 BR=4 IKF=800E-3 IKR=55E-3 XTB=1.5
+ VAF=300 VAR=40 VJE=0.65 VJC=0.536
+ RE=0.1 RC=0.1 RB=9
+ CJE=80.9E-12 CJC=16.9E-12 XCJC=0.75 FC=0.5
+ NF=1.01 NR=1 NE=1.38 NC=1.3 MJE=0.382 MJC=0.382
+ TF=0.7E-9 TR=1.6E-6
+ EG=1.11 KF=1E-9 AF=1
+ VCEO=45V ICRATING=100M MFG=ZETEX GAMMA=0.85E-7 RCO=59)

