.model BST40 NPN(IS=5E-14 ISE=9E-15 ISC=5E-12 XTI=3
+ BF=230 BR=5 IKF=250E-3 IKR=0 XTB=1.5
+ VAF=610 VAR=45 VJE=0.65 VJC=0.3905
+ RE=0.07 RC=0.07 RB=7
+ CJE=68.6E-12 CJC=9.26E-12 XCJC=0.75 FC=0.5
+ NF=1 NR=1 NE=1.28 NC=1.3 MJE=0.241 MJC=0.241
+ TF=1.1E-9 TR=0.9E-6
+ EG=1.11 KF=1E-9 AF=1
+ VCEO=45V ICRATING=100M MFG=ZETEX GAMMA=3.1E-7 RCO=75)

