.model BSV17-10 PNP(IS=70.49f XTI=3 EG=1.11 VAF=100 BF=118.4 ISE=681f NE=1.558
+ IKF=.5245 Nk=.525 Xtb=1.5 Br=18.45 Isc=715.1f Nc=1.23 Ikr=1.222
+ Rc=.8335 Cjc=36.44p Mjc=.3333 Vjc=.5 Fc=.5 Cje=213.4p Mje=.3333
+ Vje=.5 Tr=304.6n Tf=1.98n Itf=14.64 Xtf=81.44 Vtf=10)
* MFG=PHILIPS pid=bsv17-10 case=TO39
* 11-02-18 hjr

