.model BSV52 NPN(IS=1.222E-15 ISE=3.895E-14 ISC=1.85E-09 XTI=3
+ BF=82.01 BR=0.1731 IKF=0.196 IKR=0.1 XTB=1.5
+ VAF=35.3 VAR=29.6 VJE=0.7352 VJC=0.198
+ RE=0.612 RC=1.527 RB=0.5 RBM=0.5 IRB=1E-06
+ CJE=3.411E-12 CJC=1.605E-12 XCJC=0.4 FC=0.9399
+ NF=0.9901 NR=0.974 NE=1.632 NC=2.01 MJE=0.3437 MJC=0.1711
+ TF=2.115E-10 TR=60E-9 PTF=0 ITF=1.534 VTF=2.3 XTF=127
+ EG=1.11 KF=1E-9 AF=1 MFG=PHILIPS)

