.model BSW67A   NPN(IS=44.97f XTI=3 EG=1.11 VAF=100 BF=315.4 ISE=102f NE=1.261
+ IKF=.8199 Nk=.7642 Xtb=1.5 Br=4.824 Isc=159.8f Nc=1.705
+ Ikr=.3971 Rc=.2572 Cjc=52p Mjc=.3767 Vjc=.5 Fc=.5 Cje=240p
+ Mje=.2501 Vje=.5 Tr=10n Tf=1.05n Itf=2.639 Xtf=36.17 Vtf=10)
* MFG=PHILIPS pid=bsw66a case=TO39
* 11-02-18 hjr

