.model BSX60    NPN(IS=991.3f XTI=3 EG=1.11 VAF=100 BF=45.02MEG ISE=5.844p
+ NE=1.342 IKF=1.513 Nk=.8609 Xtb=1.35 Br=11.94 Isc=294n Nc=2.206
+ Ikr=69.6m Rc=.4327 Cjc=19.04p Mjc=.2126 Vjc=.5 Fc=.5 Cje=45.81p
+ Mje=.3426 Vje=.5147 Tr=10n Tf=300.3p Itf=3.307 Xtf=32.58 Vtf=10
* MFG=PHILIPS pid=bsx60 case=TO39
* 11-02-18 hjr

