.SUBCKT BU323P 1 2 3
* TERMINALS: C B E
Q1 1 2 4 QPWR .1
Q2 1 4 3 QPWR
R1 2 4 1K
R2 4 3 30
D1 3 1 DSUB
.MODEL QPWR NPN (IS=12P NF=1 BF=99.8 VAF=160 IKF=10
+ ISE=21.2P NE=2 BR=4 NR=1 VAR=20 IKR=15 RE=40M RB=.16
+ RC=40M XTB=1.5 CJE=1.82N CJC=397P TF=5.00P TR=4.5U)
.MODEL DSUB D (IS=60P N=1 RS=.1 BV=200 IBV=.001
+ CJO=397P TT=4.5U)
.ENDS
* 200 Volt 50 Amp NPN Darlington

