.SUBCKT BU323 1 2 3
* TERMINALS: C B E
Q1 1 2 4 QPWR .1
Q2 1 4 3 QPWR
R1 2 4 1K
R2 4 3 30
D1 3 1 DSUB
.MODEL QPWR NPN (IS=12P NF=1 BF=34.8 VAF=336 IKF=6.5
+ ISE=21.2P NE=2 BR=4 NR=1 VAR=32 IKR=9.75 RE=.1 RB=.4
+ RC=40M XTB=1.5 CJE=1.82N CJC=397P TF=3.25N TR=4.5U)
.MODEL DSUB D (IS=12P N=1 RS=.1 BV=350 IBV=.001
+ CJO=397P TT=4.5U)
.ENDS
* 350 Volt 10 Amp NPN Darlington

