.SUBCKT BU806 1 2 3
* TERMINALS: C B E
Q1 1 2 4 QPWR .1
Q2 1 4 3 QPWR
R1 2 4 8K
R2 4 3 44.9
D1 3 1 DSUB
D2 4 2 DSUB .01
.MODEL QPWR NPN (IS=9.6P NF=1 BF=854 VAF=254 IKF=12 ISE=17P NE=2
+ BR=4 NR=1 VAR=24 IKR=18 RE=80M RB=.32 RC=32M XTB=1.5
+ CJE=1.07N VJE=.74 MJE=.45 CJC=155P VJC=1.1 MJC=.24 TF=22.2N TR=130N)
.MODEL DSUB D (IS=9.6P N=1 RS=80M BV=200 IBV=.001
+ CJO=155P TT=330N)
.ENDS
* 200 Volt 8 Amp NPN Darlington

