.model BY252 D (IS=22U RS=42M N=3.35 BV=400 IBV=20U
+ CJO=124P VJ=.75 M=.333 TT=4.32U)
* Diotec 400 Volt 3 Amp 3 us Si Diode

