.model BY298 D (IS=22U RS=42M N=3.35 BV=400 IBV=10U
+ CJO=83.5P VJ=.75 M=.333 TT=610N)
* Diotec 400 Volt 2 Amp .5 us Si Diode

