.model BY297 D (IS=22U RS=42M N=3.35 BV=200 IBV=10U
+ CJO=74.5P VJ=.75 M=.333 TT=620N)
* Diotec 200 Volt 2 Amp .5 us Si Diode

