.model BY296 D (IS=22U RS=42M N=3.35 BV=100 IBV=10U
+ CJO=73.5P VJ=.75 M=.333 TT=620N)
* Diotec 100 Volt 2 Amp .5 us Si Diode

