.model BY396 D (IS=22U RS=42M N=3.35 BV=100 IBV=10U
+ CJO=94P VJ=.75 M=.333 TT=590N)
* Diotec 100 Volt 3 Amp .5 us Si Diode

