.model BYX55600 D (IS=3.11N RS=42M N=1.75 BV=600 IBV=5U
+ CJO=48.6P VJ=.75 M=.333 TT=455N)
* Diotec600 Volt 1.2 Amp .35 us Si Diode

