.model BYX55350 D (IS=3.11N RS=42M N=1.75 BV=350 IBV=5U
+ CJO=50.6P VJ=.75 M=.333 TT=452N)
* Diotec350 Volt 1.2 Amp .35 us Si Diode

