.model CA3046 NPN(IS=10f BF=145.76 VAF=100 IKF=46.747m ISE=114.23f NE=1.483
+ BR=100.1m VAR=100 IKR=10.01m ISC=10f RC=10 CJE=1.026p MJE=333.33m CJC=991.79f
+ MJC=333.33m TF=277.09p XTF=309.38 VTF=16.364 ITF=1.7597 TR=10n)

