.model CA3096P PNP(IS=10f BF=94.511 VAF=100 IKF=1.1177m ISE=976.47f NE=1.998
+ BR=100.1m VAR=100 IKR=10.01m ISC=10f NK=532.43m CJE=1.4535p MJE=333.33m
+ CJC=3.8474p MJC=333.33m TF=24.3n XTF=10.054 VTF=9.792 ITF=1.2571 TR=10n)

