.model CA3096N NPN(IS=10f BF=466.52 VAF=100 IKF=14.03m ISE=74.093f NE=1.6606
+ BR=100.1m VAR=100 IKR=10.01m ISC=10f NK=468.98m RC=10 CJE=1.2825p MJE=333.33m
+ CJC=786.59f MJC=333.33m TF=490.39p XTF=5.3212 VTF=28.396)

