.model D44H11 NPN(IS=7.079646E-14 ISE=2.92884E-11 ISC=3.98107E-13 XTI=3
+ BF=392.02 BR=67.165 IKF=1.72 IKR=1.58489 XTB=1.77681
+ VAF=63.5 VAR=58.42 VJE=0.785 VJC=0.5
+ RE=0.034 RC=0.2 RB=271 RBM=0.361 IRB=5.011872E-6
+ CJE=8.49E-10 CJC=3.66E-10 XCJC=0.54505 FC=0.5
+ NF=0.828 NR=0.825 NE=1.72 NC=1.07 MJE=0.387 MJC=0.352
+ EG=0.958 KF=1E-9 AF=1
+ VCEO=80 ICRATING=5 MFG=FAIRCHILD)

