.SUBCKT DB1510 1 2 3 4 5
* + - P1 P2 P3
D1 3 1 B1510
D2 4 1 B1510
D3 5 1 B1510
D4 2 4 B1510
D5 2 3 B1510
D6 2 5 B1510
.model B1510 D (IS=45.3N RS=1.92M N=2.34 BV=1K IBV=7U
+ CJO=618P VJ=.75 M=.333 TT=4.32U)
* Diotec 1000 Volt 15 Amp 3 us Si Diode
.ENDS

