.SUBCKT DB1514 1 2 3 4 5
* + - P1 P2 P3
D1 3 1 B1514
D2 4 1 B1514
D3 5 1 B1514
D4 2 4 B1514
D5 2 3 B1514
D6 2 5 B1514
.model B1514 D (IS=45.3N RS=1.92M N=2.34 BV=1.4K IBV=9U
+ CJO=618P VJ=.75 M=.333 TT=4.32U)
* Diotec 1400 Volt 15 Amp 3 us Si Diode
.ENDS

