.SUBCKT DB1512 1 2 3 4 5
* + - P1 P2 P3
D1 3 1 B1512
D2 4 1 B1512
D3 5 1 B1512
D4 2 4 B1512
D5 2 3 B1512
D6 2 5 B1512
.model B1512 D (IS=45.3N RS=1.92M N=2.34 BV=1.2K IBV=8U
+ CJO=618P VJ=.75 M=.333 TT=4.32U)
* Diotec 1200 Volt 15 Amp 3 us Si Diode
.ENDS

