.SUBCKT DB25005 1 2 3 4 5
* + - P1 P2 P3
D1 3 1 B25005
D2 4 1 B25005
D3 5 1 B25005
D4 2 4 B25005
D5 2 3 B25005
D6 2 5 B25005
.model B25005 D (IS=24.4N RS=2.64M N=1.97 BV=50 IBV=2U
+ CJO=1.02N VJ=.75 M=.333 TT=4.32U)
* Diotec 50 Volt 25 Amp 3 us Si Diode
.ENDS

