.SUBCKT DB2514 1 2 3 4 5
* + - P1 P2 P3
D1 3 1 B2514
D2 4 1 B2514
D3 5 1 B2514
D4 2 4 B2514
D5 2 3 B2514
D6 2 5 B2514
.model B2514 D (IS=24.5N RS=2.67M N=1.97 BV=1.4K IBV=9U
+ CJO=1.02N VJ=.75 M=.333 TT=4.32U)
* Diotec 1400 Volt 25 Amp 3 us Si Diode
.ENDS

