.SUBCKT DB2512 1 2 3 4 5
* + - P1 P2 P3
D1 3 1 B2512
D2 4 1 B2512
D3 5 1 B2512
D4 2 4 B2512
D5 2 3 B2512
D6 2 5 B2512
.model B2512 D (IS=24.5N RS=2.67M N=1.97 BV=1.2K IBV=8U
+ CJO=1.02N VJ=.75 M=.333 TT=4.32U)
* Diotec 1200 Volt 25 Amp 3 us Si Diode
.ENDS

