.SUBCKT DB3512 1 2 3 4 5
* + - P1 P2 P3
D1 3 1 B3512
D2 4 1 B3512
D3 5 1 B3512
D4 2 4 B3512
D5 2 3 B3512
D6 2 5 B3512
.model B3512 D (IS=300N RS=1.67M N=1.93 BV=1.2K IBV=8U
+ CJO=1.44N VJ=.75 M=.333 TT=4.32U)
* Diotec 1200 Volt 35 Amp 3 us Si Diode
.ENDS

