.model DD1200 D (IS=177P RS=446 N=23.2 BV=12K IBV=300N
+ CJO=2.14P VJ=.75 M=.333 TT=50.4N)
* Diotec 12000 Volt 20M Amp 35M us Si Diode

