* Diode Bridge 
.model mod1 d
.SUBCKT DiodeBridge 0 1 2 3
d1 2 3 mod1
d2 0 2 mod1
d3 1 3 mod1
d4 0 1 mod1
.ENDS DiodeBridge 
