* Diode Bridge 
.model mod1 d
.SUBCKT DiodeBridge 1 2 3 4
d1 3 4 mod1
d2 1 3 mod1
d3 2 4 mod1
d4 1 2 mod1
.ENDS DiodeBridge 
