.model FE1B D (IS=2.51N RS=28.2M N=1.42 BV=100 IBV=1U
+ CJO=42.4P VJ=.75 M=.333 TT=21.6N)
* Diotec 100 Volt 1 Amp 15M us Si Diode

