.model FE1E D (IS=2.51N RS=28.2M N=1.42 BV=250 IBV=1.5U
+ CJO=42.4P VJ=.75 M=.333 TT=21.6N)
* Diotec 250 Volt 1 Amp 15M us Si Diode

