.model GI750 D (IS=3.60E-08 N=1.67 BV=6.66E+01 IBV=2.50E-05
+ RS=1.84E-03 CJO=9.28E-10 VJ=.29 M=.55 TT=6.91E-06)
* General Instrument 50 Volt 6.00 Amp 5.50 us Si Rectifier

