.model HP2280 D (IS=120N RS=10 N=1.08 BV=5 IBV=10U
+ CJO=.09P VJ=.5 M=.5 EG=.69 TT=72P)
* H-P 5082-2280 400 Volt .5 Amp Si Schottky

