.model HP2303 D (IS=7N RS=10 N=1.08 BV=25 IBV=10U
+ CJO=.7P VJ=.64 M=.5 EG=.69 TT=72P)
* H-P 5082-2303 400 Volt .5 Amp Si Schottky Diode

