.model HP2400 D (IS=7N RS=10 N=1.08 BV=35 IBV=10U
+ CJO=.7P VJ=.64 M=.5 EG=.69 TT=72P)
* 400 Volt .5 Amp Si Schottky Diode

