.model HP275X D (IS=1.2N RS=35 N=1.08 BV=5 IBV=10U
+ CJO=.1P VJ=.6 M=.5 EG=.69 TT=72P)
* 400 Volt .5 Amp Si Schottky

