.model HP5810 D (IS=62P RS=12 N=1.08 BV=4 IBV=10U
+ CJO=.09P VJ=.65 M=.5 EG=.69 TT=72P)
* H-P HSCH-5810 400 Volt .5 Amp Si Schottky

