.model HP5832 D (IS=46N RS=8 N=1.08 BV=4 IBV=10U
+ CJO=.13P VJ=.5 M=.5 EG=.69 TT=72P)
* H-P HSCH-5832 400 Volt .5 Amp Si Schottky

