.model IRF044 NMOS(Level=3 Gamma=0 Delta=0 Eta=0 Theta=0 Kappa=0.2 Vmax=0 Xj=0
+ Tox=100n Uo=600 Phi=.6 Rs=10.08m Kp=21.21u W=1.3 L=2u Vto=3.441
+ Rd=.479m Rds=266.7K Cbd=5.111n Pb=.8 Mj=.5 Fc=.5 Cgso=830.7p
+ Cgdo=1.012n Rg=7.817 Is=228.7f N=1 Tt=103n)
* IR pid=IRF044 case=TO3

