.model IRF034 NMOS(Level=3 Gamma=0 Delta=0 Eta=0 Theta=0 Kappa=0.2 Vmax=0 Xj=0
+ Tox=100n Uo=600 Phi=.6 Rs=31.69m Kp=21.5u W=1.3 L=2u Vto=3.441
+ Rd=1.139m Rds=266.7K Cbd=2.857n Pb=.8 Mj=.5 Fc=.5 Cgso=579p
+ Cgdo=456.3p Rg=8.548 Is=184.5f N=1 Tt=365n)
* IR pid=IRF034 case=TO3

