.model IRF121 NMOS(Level=3 Gamma=0 Delta=0 Eta=0 Theta=0 Kappa=0.2 Vmax=0 Xj=0
+ Tox=100n Uo=600 Phi=.6 Rs=.1421 Kp=20.62u W=.7 L=2u Vto=3.762
+ Rd=82.05m Rds=355.6K Cbd=640.5p Pb=.8 Mj=.5 Fc=.5 Cgso=503.3p
+ Cgdo=181.6p Rg=4.962 Is=16.64p N=1 Tt=137n)
* IR pid=IRF120 case=TO3

