.model IRF123 NMOS(Level=3 Gamma=0 Delta=0 Eta=0 Theta=0 Kappa=0.2 Vmax=0 Xj=0
+ Tox=100n Uo=600 Phi=.6 Rs=.1284 Kp=20.58u W=.59 L=2u Vto=3.762
+ Rd=.1113 Rds=355.6K Cbd=640.5p Pb=.8 Mj=.5 Fc=.5 Cgso=573.4p
+ Cgdo=215.9p Rg=5.309 Is=120.1p N=1 Tt=137n)
* IR pid=IRF120 case=TO3

