.model IRF220 NMOS(Level=3 Gamma=0 Delta=0 Eta=0 Theta=0 Kappa=0.2 Vmax=0 Xj=0
+ Tox=100n Uo=600 Phi=.6 Rs=.1196 Kp=21.11u W=.23 L=2u Vto=3.077
+ Rd=.3174 Rds=888.9K Cbd=650.2p Pb=.8 Mj=.5 Fc=.5 Cgso=4.029n
+ Cgdo=168.6p Rg=9.084 Is=2.4n N=1 Tt=610n)
* IR pid=IRF220 case=TO3

