.model IRF241 NMOS(Level=3 Gamma=0 Delta=0 Eta=0 Theta=0 Kappa=0.2 Vmax=0 Xj=0
+ Tox=100n Uo=600 Phi=.6 Rs=5.466m Kp=20.82u W=.44 L=2u Vto=3.814
+ Rd=97.84m Rds=666.7K Cbd=1.813n Pb=.8 Mj=.5 Fc=.5 Cgso=1.804n
+ Cgdo=663.5p Rg=1.741 Is=5.191p N=1 Tt=312n)
* IR pid=IRF241 case=TO3

