.model IRF230 NMOS(Level=3 Gamma=0 Delta=0 Eta=0 Theta=0 Kappa=0.2 Vmax=0 Xj=0
+ Tox=100n Uo=600 Phi=.6 Rs=.1066 Kp=20.8u W=.85 L=2u Vto=3.436
+ Rd=.1245 Rds=888.9K Cbd=933p Pb=.8 Mj=.5 Fc=.5 Cgso=2.32n
+ Cgdo=68.35p Rg=5.627 Is=151.4p N=1 Tt=515n)
* IR pid=IRF230 case=TO3

