.model IRF234 NMOS(Level=3 Gamma=0 Delta=0 Eta=0 Theta=0 Kappa=0.2 Vmax=0 Xj=0
+ Tox=100n Uo=600 Phi=.6 Rs=39.46m Kp=20.56u W=.3 L=2u Vto=3.866
+ Rd=.303 Rds=1.111MEG Cbd=841.5p Pb=.8 Mj=.5 Fc=.5 Cgso=2.521n
+ Cgdo=325p Rg=1.074 Is=17.23p N=1 Tt=250n)
* IR pid=IRF234 case=TO3

