.model IRF453 NMOS(Level=3 Gamma=0 Delta=0 Eta=0 Theta=0 Kappa=0.2 Vmax=0 Xj=0
+ Tox=100n Uo=600 Phi=.6 Rs=1.456m Kp=20.2u W=1.1 L=2u Vto=3.635
+ Rd=.3843 Rds=2MEG Cbd=2.693n Pb=.8 Mj=.5 Fc=.5 Cgso=1.812n
+ Cgdo=192.2p Rg=71.55m Is=95.36p N=1 Tt=765n)
* IR pid=IRF453 case=TO3

