.model IRF422 NMOS(Level=3 Gamma=0 Delta=0 Eta=0 Theta=0 Kappa=0.2 Vmax=0 Xj=0
+ Tox=100n Uo=600 Phi=.6 Rs=57.8m Kp=21.11u W=.26 L=2u Vto=3.827
+ Rd=1.93 Rds=2.222MEG Cbd=394.1p Pb=.8 Mj=.5 Fc=.5 Cgso=1.589n
+ Cgdo=105.2p Rg=.7721 Is=978.4p N=1 Tt=560n)
* IR pid=IRF422 case=TO3

