.model IRF442 NMOS(Level=3 Gamma=0 Delta=0 Eta=0 Theta=0 Kappa=0.2 Vmax=0 Xj=0
+ Tox=100n Uo=600 Phi=.6 Rs=1.819m Kp=20.87u W=.61 L=2u Vto=3.873
+ Rd=.8223 Rds=2.222MEG Cbd=1.365n Pb=.8 Mj=.5 Fc=.5 Cgso=1.78n
+ Cgdo=148.8p Rg=.6258 Is=1.406n N=1 Tt=710n)
* IR pid=IRF442 case=TO3

