.model IRF448 NMOS(Level=3 Gamma=0 Delta=0 Eta=0 Theta=0 Kappa=0.2 Vmax=0 Xj=0
+ Tox=100n Uo=600 Phi=.6 Rs=1.067m Kp=20.7u W=.76 L=2u Vto=3.748
+ Rd=.4784 Rds=2.222MEG Cbd=1.91n Pb=.8 Mj=.5 Fc=.5 Cgso=1.984n
+ Cgdo=165.4p Rg=.409 Is=156.8p N=1 Tt=750n)
* IR pid=IRF448 case=TO3

