.model IRF450 NMOS(Level=3 Gamma=0 Delta=0 Eta=0 Theta=0 Kappa=0.2 Vmax=0 Xj=0
+ Tox=100n Uo=600 Phi=.6 Rs=1.456m Kp=20.78u W=.92 L=2u Vto=3.27
+ Rd=.2828 Rds=2MEG Cbd=4.433n Pb=3 Mj=1.092 Fc=.5 Cgso=1.949n
+ Cgdo=130.7p Rg=4.724 Is=188.2u N=3.12 RB=1n)
* IR pid=IRF450 case=TO3

