.model IRF533 NMOS(Level=3 Gamma=0 Delta=0 Eta=0 Theta=0 Kappa=0.2 Vmax=0 Xj=0
+ Tox=100n Uo=600 Phi=.6 Rs=58.53m Kp=20.73u W=.68 L=2u Vto=3.191
+ Rd=78.69m Rds=355.6K Cbd=1.151n Pb=.8 Mj=.5 Fc=.5 Cgso=805.6p
+ Cgdo=332.5p Rg=2.919 Is=4.033p N=1 Tt=125n)
* IR pid=IRF533 case=TO220

