.model IRF530 NMOS(Level=3 Gamma=0 Delta=0 Eta=0 Theta=0 Kappa=0.2 Vmax=0 Xj=0
+ Tox=100n Uo=600 Phi=.6 Rs=58.53m Kp=20.73u W=.68 L=2u Vto=3.191
+ Rd=38.69m Rds=444.4K Cbd=1.151n Pb=.8 Mj=.5 Fc=.5 Cgso=876.7p
+ Cgdo=261.4p Rg=4.63 Is=1.861p N=1 Tt=125n)
* IR pid=IRF530 case=TO220

