.model IRF631 NMOS(Level=3 Gamma=0 Delta=0 Eta=0 Theta=0 Kappa=0.2 Vmax=0 Xj=0
+ Tox=100n Uo=600 Phi=.6 Rs=.1131 Kp=20.8u W=.98 L=2u Vto=3.513
+ Rd=.1202 Rds=666.7K Cbd=989.8p Pb=.8 Mj=.5 Fc=.5 Cgso=2.012n
+ Cgdo=79.89p Rg=3.621 Is=55.22p N=1 Tt=515n)
* IR pid=IRF631 case=TO220

