.model IRF632 NMOS(Level=3 Gamma=0 Delta=0 Eta=0 Theta=0 Kappa=0.2 Vmax=0 Xj=0
+ Tox=100n Uo=600 Phi=.6 Rs=.1131 Kp=20.8u W=.98 L=2u Vto=3.513
+ Rd=.2702 Rds=888.9K Cbd=989.8p Pb=.8 Mj=.5 Fc=.5 Cgso=2.032n
+ Cgdo=59.27p Rg=5.766 Is=270p N=1 Tt=515n)
* IR pid=IRF632 case=TO220

