.model IRF720 NMOS(Level=3 Gamma=0 Delta=0 Eta=0 Theta=0 Kappa=0.2 Vmax=0 Xj=0
+ Tox=100n Uo=600 Phi=.6 Rs=41.38m Kp=20.58u W=.23 L=2u Vto=3.78
+ Rd=1.489 Rds=1.778MEG Cbd=415.4p Pb=.8 Mj=.5 Fc=.5 Cgso=1.676n
+ Cgdo=149.3p Rg=1.217 Is=177.9p N=1 Tt=535n)
* IR pid=IRF720 case=TO220

