.model IRF712 NMOS(Level=3 Gamma=0 Delta=0 Eta=0 Theta=0 Kappa=0.2 Vmax=0 Xj=0
+ Tox=100n Uo=600 Phi=.6 Rs=.1934 Kp=21.18u W=.2 L=2u Vto=3.553
+ Rd=3.33 Rds=1.778MEG Cbd=232p Pb=.8 Mj=.5 Fc=.5 Cgso=1.179n
+ Cgdo=103.2p Rg=1.511 Is=32.99p N=1 Tt=510n)
* IR pid=IRF712 case=TO220

