.model IRF823 NMOS(Level=3 Gamma=0 Delta=0 Eta=0 Theta=0 Kappa=0.2 Vmax=0 Xj=0
+ Tox=100n Uo=600 Phi=.6 Rs=9.112m Kp=20.23u W=.2 L=2u Vto=3.858
+ Rd=2.034 Rds=2MEG Cbd=405.1p Pb=.8 Mj=.5 Fc=.5 Cgso=1.94n
+ Cgdo=152.3p Rg=67.83m Is=494.2p N=1 Tt=560n)
* IR pid=IRF823 case=TO220

