.model IRF831 NMOS(Level=3 Gamma=0 Delta=0 Eta=0 Theta=0 Kappa=0.2 Vmax=0 Xj=0
+ Tox=100n Uo=600 Phi=.6 Rs=31.81m Kp=20.55u W=.47 L=2u Vto=3.749
+ Rd=1.334 Rds=2MEG Cbd=644.1p Pb=.8 Mj=.5 Fc=.5 Cgso=1.286n
+ Cgdo=106.7p Rg=.1647 Is=312p N=1 Tt=585n)
* IR pid=IRF831 case=TO220

