.model IRF9131 PMOS(Level=3 Gamma=0 Delta=0 Eta=0 Theta=0 Kappa=0.2 Vmax=0 Xj=0
+ Tox=100n Uo=300 Phi=.6 Rs=.1602 Kp=10.21u W=1.5 L=2u Vto=-3.698
+ Rd=64.63m Rds=266.7K Cbd=1.249n Pb=.8 Mj=.5 Fc=.5 Cgso=1.418n
+ Cgdo=189p Rg=12.94 Is=2.925E-18 N=2 Tt=290n)
* IR pid=IRFC9131 case=TO3

