.SUBCKT KBPC802 2 3 5 4
* IN1 IN2 + -
D2 2 5 BPC802
D3 3 5 BPC802
D4 4 3 BPC802
D1 4 2 BPC802
.model BPC802 D (IS=18.3N RS=3.2M N=1.72 BV=160 IBV=6U
+ CJO=330P VJ=.75 M=.333 TT=4.32U)
* Diotec 160 Volt 8 Amp 3 us Si Diode Bridge
.ENDS

