.SUBCKT KBPC800 2 3 5 4
* IN1 IN2 + -
D2 2 5 BPC800
D3 3 5 BPC800
D4 4 3 BPC800
D1 4 2 BPC800
.model BPC800 D (IS=18.3N RS=3.2M N=1.72 BV=50 IBV=5U
+ CJO=330P VJ=.75 M=.333 TT=4.32U)
* Diotec 50 Volt 8 Amp 3 us Si Diode Bridge
.ENDS

