.SUBCKT KBPC808 2 3 5 4
* IN1 IN2 + -
D2 2 5 BPC808
D3 3 5 BPC808
D4 4 3 BPC808
D1 4 2 BPC808
.model BPC808 D (IS=18.3N RS=3.2M N=1.72 BV=800 IBV=8.5U
+ CJO=330P VJ=.75 M=.333 TT=4.32U)
* Diotec 800 Volt 8 Amp 3 us Si Diode Bridge
.ENDS

