.SUBCKT KBPC2501 2 3 5 4
* IN1 IN2 + -
D2 2 5 BPC2501
D3 3 5 BPC2501
D4 4 3 BPC2501
D1 4 2 BPC2501
.model BPC2501 D (IS=679N RS=2.22M N=2.06 BV=100 IBV=12U
+ CJO=1.02N VJ=.75 M=.333 TT=4.32U)
* Diotec 100 Volt 25 Amp 3 us Si Diode Bridge
.ENDS

