.SUBCKT KBU4K 2 3 5 4
* IN1 IN2 + -
D2 2 5 BU4K
D3 3 5 BU4K
D4 4 3 BU4K
D1 4 2 BU4K
.model BU4K D (IS=10.7N RS=3M N=1.67 BV=800 IBV=7U
+ CJO=165P VJ=.75 M=.333 TT=4.32U)
* Diotec 800 Volt 4 Amp 3 us Si Diode Bridge
.ENDS

