.SUBCKT KBU4M 2 3 5 4
* IN1 IN2 + -
D2 2 5 BU4M
D3 3 5 BU4M
D4 4 3 BU4M
D1 4 2 BU4M
.model BU4M D (IS=10.7N RS=3M N=1.67 BV=1K IBV=8U
+ CJO=165P VJ=.75 M=.333 TT=4.32U)
* Diotec 1000 Volt 4 Amp 3 us Si Diode Bridge
.ENDS

