*Typ LED GaAs RED: Vf=1.7V Vr=4V If=40mA trr=3uS
.MODEL LEDRED D (IS=93.2P RS=42M N=3.73 BV=4 IBV=10U
+ CJO=2.97P VJ=.75 M=.333 TT=4.32U)
