.MODEL MBR1535C D (IS=31.3N RS=15.5M N=.769 BV=35 IBV=15U
+ CJO=309P VJ=.75 M=.333 TT=1N EG=.69 XTI=2)
* Motorola MBR1535CT 35 Volt 7.5 Amp .5 us Si Diode

