.SUBCKT MJ10005 1 2 3
* TERMINALS: C B E
Q1 1 2 4 QPWR .1
Q2 1 4 3 QPWR
R1 2 4 100
R2 4 3 10
D1 3 1 DSUB
D2 4 2 DSUB .01
.MODEL QPWR NPN (IS=24P NF=1.1 BF=18.4 VAF=360 IKF=15
+ ISE=42.4P NE=2 BR=4 NR=1 VAR=32 IKR=22.5 RE=47.5M RB=.22M
+ RC=22.5M XTB=1.5 CJE=210N CJC=45900P TF=30N TR=160N)
.MODEL DSUB D (IS=24P N=1 RS=56.2M BV=400 IBV=.001
+ CJO=190P TT=360N)
.ENDS
* 400 Volt 20 Amp NPN Darlington
