.model MJE2955 PNP(IS=2.37E-8 ISE=1E-9 ISC=0 XTI=3
+ BF=73 BR=2.66 IKF=0.8 IKF=0.4 XTB=1.5
+ VAF=90 VAR=30 VJE=0.65 VJC=0.65
+ RE=0.00856 RC=0.0856 RB=0.81
+ CJE=415E-12 CJC=1000E-12 XCJC=0.75 FC=0.75
+ NF=1 NR=1 NE=1.26 NC=1.5 MJE=0.5 MJC=0.33
+ TF=140E-9 TR=0.75E-6
+ EG=1.11 KF=1E-9 AF=1
+ VCEO=60 ICRATING=10 MFG=STMICRO)

