.SUBCKT MJE350 1 2 3
* TERMINALS: C B E
* 300 Volt .5 Amp SiPNP Power Transistor 08-16-1995
Q1 1 2 3 QPWR .67
Q2 1 4 3 QPWR .33
RBS 2 4 6.5
.MODEL QPWR PNP (IS=36.8F NF=1 BF=365 VAF=311 IKF=.225 ISE=96.8P NE=2
+ BR=4 NR=1 VAR=12 IKR=.337 RE=.663 RB=2.65 RC=.265 XTB=1.5
+ CJE=39.1P VJE=.6 MJE=.3 CJC=25.4P VJC=.22 MJC=.2 TF=7.65N TR=294N)
.ENDS
* MJE350, MOTOROLA BIPOLAR POWER TRANSISITOR DATA BOOK

