.model MPSA10 NPN(IS=61.01E-15 ISE=76.83E-15 ISC=0 XTI=3
+ BF=193 BR=0.2195 IKF=97.79E-3 IKR=0 XTB=1.5
+ VAF=57.37 VAR=19 VJE=0.65 VJC=0.65
+ RE=0.15 RC=2.14 RB=10
+ CJE=5.928E-12 CJC=6.072E-12 XCJC=0.75 FC=0.5
+ NF=1 NR=1 NE=1.305 NC=2 MJE=0.3333 MJC=0.3333
+ TF=316.3E-12 TR=1.573E-6 ITF=0.2 VTF=5 XTF=8
+ EG=1.11 KF=1E-9 AF=1
+ VCEO=40 ICRATING=100M MFG=NSC)

