.model MPSA55 PNP(IS=65.000E-15 ISE=45.000E-15 ISC=62.000E-15 XTI=4.300
+ BF=151.409 BR=5.0 IKF=0.825 IKR=75.000E-3 XTB=1.900
+ VAF=81.400 VAR=10.808 VJE=1.090 VJC=1.0
+ RE=0.277 RC=0.311 RB=0.350 RBM=0.200 IRB=20.000E-6
+ CJE=74.000E-12 CJC=27.800E-12 XCJC=0.650 FC=0.750
+ NF=0.988 NR=0.985 NE=2.223 NC=1.478 MJE=0.410 MJC=0.571
+ TF=1.100E-9 TR=2.000E-9 PTF=1.0 ITF=0.487 VTF=2.0 XTF=5.0
+ EG=1.110 KF=1E-9 AF=1
+ VCEO=60 ICRATING=200M MFG=SIEMENS)

