.model MPSA05 NPN(IS=75.000E-15 ISE=11.429E-15 ISC=60.000E-15 XTI=4.0
+ BF=149.627 BR=2.900 IKF=2.0 IKR=36.690E-3 XTB=1.500
+ VAF=300 VAR=25.0 VJE=1.0 VJC=0.720
+ RE=0.100 RC=0.212 RB=0.400 RBM=0.200 IRB=20.000E-6
+ CJE=79.000E-12 CJC=16.000E-12 XCJC=0.650 FC=0.900
+ NF=1.010 NR=1.020 NE=1.663 NC=1.428 MJE=0.365 MJC=0.465
+ TF=1.100E-9 TR=2.000E-9 PTF=1.0 ITF=0.600 VTF=4.0 XTF=3.450
+ EG=1.110 KF=1E-9 AF=1
+ VCEO=60 ICRATING=200M MFG=SIEMENS)

