.SUBCKT MPSA13 1 2 3
* TERMINALS: C B E
* 30 Volt .5 Amp NPN Darlington Transistor 08-16-1995
Q1 1 2 4 QPWR .1
Q2 1 4 3 QPWR
.MODEL QPWR NPN (IS=600F NF=1 BF=224 VAF=98.6 IKF=.4 ISE=21.8P NE=2
+ BR=4 NR=1 VAR=40 IKR=.6 RE=.8 RB=3.2 RC=.32 XTB=1.5
+ CJE=66.1P VJE=.74 MJE=.45 CJC=6.96P VJC=1.1 MJC=.24 TF=60.3N TR=2.6U)
.ENDS
* MPSA13, NATIONAL SEMICONDUCTOR DISCRETE SEMICONDUCTOR

