.model MPSH10 NPN(IS=5.6E-16 ISE=6.367E-15 ISC=1E-15 XTI=3
+ BF=133 BR=8 IKF=2.5E-2 IKR=1E-2 XTB=1.5
+ VAF=40 VAR=6 VJE=1.195 VJC=0.5617
+ RE=0.65 RC=1.8 RB=150 RBM=0.5 IRB=5E-4
+ CJE=1.012E-12 CJC=1.197E-12 XCJC=0.75 FC=0.5
+ NF=1 NR=0.99 NE=1.75 NC=1.167 MJE=0.4496 MJC=0.2588
+ TF=6E-11 TR=40.5E-9 ITF=0.27 VTF=10 XTF=30
+ EG=1.11 KF=1E-9 AF=1
+ VCEO=25 ICRATING=50M MFG=ZETEX)

