.model MPSL51 PNP(IS=21.48E-15 ISE=21.48E-15 ISC=0 XTI=3
+ BF=116.7 BR=3.728 IKF=0.1803 IKR=0 XTB=1.5
+ VAF=100 VAR=30 VJE=0.65 VJC=0.65
+ RE=0.15 RC=1.6 RB=10
+ CJE=73.39E-12 CJC=21.16E-12 XCJC=0.75 FC=0.5
+ NF=1 NR=1 NE=1.362 NC=2 MJE=0.3777 MJC=0.5312
+ TF=639.1E-12 TR=1.487E-9 ITF=0 VTF=0 XTF=0
+ EG=1.11 KF=1E-9 AF=1
+ VCEO=120 ICRATING=50M MFG=NSC)

