.model MUR1640C D (IS=179N RS=42M N=1.64 BV=400 IBV=500U
+ CJO=320P VJ=.775 M=.37 TT=107.4N)
* Motorola MUR1640CT 400 Volt 16 Amp 60M us Si Diode

