.model MUR1650C D (IS=179N RS=42M N=1.64 BV=500 IBV=500U
+ CJO=310P VJ=.775 M=.37 TT=109N)
* Motorola MUR1650CT 500 Volt 16 Amp 60M us Si Diode

