.MODEL MUR1630C D (IS=179N RS=42M N=1.64 BV=300 IBV=500U
+ CJO=300P VJ=.775 M=.37 TT=107.4N)
* Motorola MUR1630CT 300 Volt 16 Amp 60M us Si Diode

