.MODEL MUR1620C D (IS=179N RS=42M N=1.64 BV=200 IBV=250U
+ CJO=220P VJ=.775 M=.333 TT=49.4N)
* Motorola MUR1620CT 200 Volt 16 Amp 35M us Si Diode

