.MODEL MUR1610C D (IS=179N RS=42M N=1.64 BV=100 IBV=250U
+ CJO=210P VJ=.759 M=.373 TT=51.4N)
* Motorola MUR1610CT 100 Volt 16 Amp 35M us Si Diode

