.MODEL MUR1615C D (IS=179N RS=42M N=1.64 BV=150 IBV=250U
+ CJO=200P VJ=.775 M=.377 TT=52N)
* Motorola MUR1615CT 150 Volt 16 Amp 35M us Si Diode

