.MODEL MUR1660C D (IS=179N RS=42M N=1.64 BV=600 IBV=500U
+ CJO=310P VJ=.775 M=.37 TT=109N)
* Motorola MUR1660CT 600 Volt 16 Amp 60M us Si Diode

