.model MUR7020 D (IS=12.9U RS=1.73M N=2.01 BV=200 IBV=25U
+ CJO=470P VJ=.275 M=.133 TT=77N)
* Motorola 200 Volt 70 Amp 60M us Si Diode

