.model RC18C6A D (IS=5.43U RS=201U N=2.22 BV=600 IBV=7M
+ CJO=8.22N VJ=.75 M=.333 TT=17.2U)
* IR 600 Volt 200 Amp 12 us Si Diode

