.model RGP30M D (IS=22U RS=42M N=3.35 BV=1K IBV=10U
+ CJO=100P VJ=.75 M=.333 TT=570N)
* Diotec 1000 Volt 3 Amp .5 us Si Diode

