.MODEL SFH405 D (IS=199N RS=.389 N=3.85 BV=5 IBV=10N
+ CJO=40P VJ=.75 M=.333 TT=1.44U)
* Siemens 5 Volt 40M Amp 1 us GaAs Diode

