.MODEL SFH400 D (IS=234P RS=.555 N=2.51 BV=5 IBV=10N
+ CJO=40P VJ=.75 M=.333 TT=1.44U)
* Siemens 5 Volt .3 Amp 1 us GaAs Diode

