.model SMBTA56  PNP(IS=9.744f XTI=3 EG=1.11 VAF=100 BF=107.1 ISE=9.747f
+ NE=1.377 IKF=1.26 Nk=.7865 Xtb=1.5 Br=3.584 Isc=59.76f Nc=1.511
+ Ikr=1.901 Rc=.6051 Cjc=29.15p Mjc=.3333 Vjc=.5 Fc=.5 Cje=87.45p
+ Mje=.3333 Vje=.5 Tr=10n Tf=977.7p Itf=13.98 Xtf=131.9 Vtf=10)
* MFG=SIEMENS pid=smbta55 case=SOT23
* 11-02-18 hjr

