.SUBCKT TIP106 1 2 3
* TERMINALS: C B E
* 80 Volt 8 Amp PNP Darlington Transistor 08-03-1995
Q1 1 2 4 QPWR .1
Q2 1 4 3 QPWR
R1 2 4 1.8K
R2 4 3 70
D1 1 3 DSUB
.MODEL QPWR PNP (IS=9.6P NF=1 BF=93.5 VAF=161 IKF=6.24 ISE=828P NE=2
+ BR=4 NR=1 VAR=20 IKR=9.36 RE=.112 RB=.45 RC=45M XTB=1.5
+ CJE=1.65N VJE=.74 MJE=.45 CJC=238P VJC=1.1 MJC=.24 TF=53.7N TR=1.53U)
.MODEL DSUB D (IS=9.6P N=1 RS=.112 BV=80 IBV=.001 CJO=238P TT=1.53U)
.ENDS
* TIP106, TEXAS INSTRUMENTS POWER PRODUCTS DATA BOOK, 1985

