.SUBCKT TIP146 1 2 3
* TERMINALS: C B E
* 80 Volt 10 Amp PNP Darlington Transistor 08-04-1995
Q1 1 2 4 QPWR .1
Q2 1 4 3 QPWR
R1 2 4 8K
R2 4 3 40
D1 1 3 DSUB
.MODEL QPWR PNP (IS=12P NF=1 BF=125 VAF=161 IKF=8 ISE=779P NE=2
+ BR=4 NR=1 VAR=20 IKR=12 RE=.115 RB=.46 RC=46M XTB=1.5
+ CJE=2.06N VJE=.74 MJE=.45 CJC=297P VJC=1.1 MJC=.24 TF=98.5N TR=4.25U)
.MODEL DSUB D (IS=12P N=1 RS=.115 BV=80 IBV=.001 CJO=297P TT=4.25U)
.ENDS
* TIP146, MOTOROLA BIPOLAR POWER TRANSISITOR DATA BOOK

