.SUBCKT TIP101 1 2 3
* TERMINALS: C B E
* 80 Volt 8 Amp NPN Darlington Transistor 08-03-1995
Q1 1 2 4 QPWR .1
Q2 1 4 3 QPWR
R1 2 4 1.8K
R2 4 3 70
D1 3 1 DSUB
.MODEL QPWR NPN (IS=9.6P NF=1 BF=447 VAF=161 IKF=5.44 ISE=161P NE=2
+ BR=4 NR=1 VAR=20 IKR=8.16 RE=.112 RB=.45 RC=45M XTB=1.5
+ CJE=1.07N VJE=.74 MJE=.45 CJC=155P VJC=1.1 MJC=.24 TF=62.6N TR=3.06U)
.MODEL DSUB D (IS=9.6P N=1 RS=.112 BV=80 IBV=.001 CJO=155P TT=3.06U)
.ENDS
* TIP101, TEXAS INSTRUMENTS POWER PRODUCTS DATA BOOK, 1985

