.SUBCKT TIP116 1 2 3
* TERMINALS: C B E
* 80 Volt 2 Amp PNP Darlington Transistor 08-04-1995
Q1 1 2 4 QPWR .1
Q2 1 4 3 QPWR
R1 2 4 8K
R2 4 3 60
D1 1 3 DSUB
.MODEL QPWR PNP (IS=2.4P NF=1 BF=142 VAF=161 IKF=2.4 ISE=168P NE=2
+ BR=4 NR=1 VAR=20 IKR=3.6 RE=.45 RB=1.8 RC=.18 XTB=1.5
+ CJE=382P VJE=.74 MJE=.45 CJC=99.3P VJC=1.1 MJC=.24 TF=98.5N TR=4.25U)
.MODEL DSUB D (IS=2.4P N=1 RS=.45 BV=80 IBV=.001 CJO=99.3P TT=4.25U)
.ENDS
* TIP116, MOTOROLA BIPOLAR POWER TRANSISITOR DATA BOOK

