.SUBCKT TIP141 1 2 3
* TERMINALS: C B E
* 80 Volt 10 Amp NPN Darlington Transistor 08-04-1995
Q1 1 2 4 QPWR .1
Q2 1 4 3 QPWR
R1 2 4 8K
R2 4 3 40
D1 3 1 DSUB
.MODEL QPWR NPN (IS=12P NF=1 BF=150 VAF=161 IKF=4.64 ISE=494P NE=2
+ BR=4 NR=1 VAR=20 IKR=6.96 RE=.115 RB=.46 RC=46M XTB=1.5
+ CJE=1.34N VJE=.74 MJE=.45 CJC=193P VJC=1.1 MJC=.24 TF=98.5N TR=4.25U)
.MODEL DSUB D (IS=12P N=1 RS=.115 BV=80 IBV=.001 CJO=193P TT=4.25U)
.ENDS
* TIP141, MOTOROLA BIPOLAR POWER TRANSISITOR DATA BOOK

