.SUBCKT TIP120 1 2 3
* TERMINALS: C B E
* 60 Volt 5 Amp NPN Darlington Transistor 08-03-1995
Q1 1 2 4 QPWR .1
Q2 1 4 3 QPWR
R1 2 4 10K
R2 4 3 150
D1 3 1 DSUB
.MODEL QPWR NPN (IS=6P NF=1 BF=116 VAF=139 IKF=3.2 ISE=376P NE=2
+ BR=4 NR=1 VAR=20 IKR=4.8 RE=.33 RB=1.32 RC=.132 XTB=1.5
+ CJE=676P VJE=.74 MJE=.45 CJC=97.5P VJC=1.1 MJC=.24 TF=85.3N TR=3.68U)
.MODEL DSUB D (IS=6P N=1 RS=.33 BV=60 IBV=.001 CJO=97.5P TT=3.68U)
.ENDS
* TIP120, TEXAS INSTRUMENTS POWER PRODUCTS DATA BOOK, 1985

