.model TIP32C PNP(IS=6.77594E-13 ISE=1.31133E-11 ISC=1.31133E-11 XTI=3
+ BF=198.8 BR=25.4966 IKF=0.891251 IKR=0.410482 XTB=1.2648
+ VAF=77.429 VAR=70.9603 VJE=0.59 VJC=0.5
+ RE=0.06 RC=0.16 RB=161.0 RBM=3.097 IRB=3.548134E-5
+ CJE=2.7E-10 CJC=1.07E-10 XCJC=0.589205 FC=0.5
+ NF=1.001 NR=1.004 NE=1.98 NC=1.12 MJE=0.319 MJC=0.352
+ TF=2.3733E-8 TR=1.0000E-8 ITF=1 VTF=10 XTF=10
+ EG=1.0863 KF=1E-9 AF=1
+ VCEO=100 ICRATING=3 MFG=FAIRCHILD)

