.model TIS98 NPN(IS=4.872E-15 ISE=14.65E-15 ISC=0 XTI=3
+ BF=96 BR=6.935 IKF=0.1434 IKR=0 XTB=1.5
+ VAF=100 VAR=30 VJE=0.65 VJC=0.65
+ RE=0.15 RC=0.7 RB=10
+ CJE=10.49E-12 CJC=8.866E-12 XCJC=0.75 FC=0.5
+ NF=1 NR=1 NE=1.315 NC=2 MJE=0.4602 MJC=0.4312
+ TF=405.1E-12 TR=565E-12 ITF=0.18 VTF=3 XTF=2.5
+ EG=1.11 KF=1E-9 AF=1
+ VCEO=60 ICRATING=100M MFG=NSC)

